version 2
run Default-0-20250521-10:44:07-64748
attr configname Default
attr datetime 20250521-10:44:07
attr experiment Default
attr inifile omnetpp.ini
attr iterationvars ""
attr iterationvarsf ""
attr measurement ""
attr network RSUExampleScenario
attr processid 64748
attr repetition 0
attr replication #0
attr resultdir results
attr runnumber 0
attr seedset 0
param *.playgroundSizeX 5000m
param *.playgroundSizeY 5000m
param *.playgroundSizeZ 50m
param *.annotations.draw true
param *.obstacles.obstacles "xmldoc(\"config.xml\", \"//AnalogueModel[@type='SimpleObstacleShadowing']/obstacles\")"
param *.manager.updateInterval 1s
param *.manager.host "\"localhost\""
param *.manager.port 9999
param *.manager.autoShutdown true
param *.manager.launchConfig "xmldoc(\"erlangen.launchd.xml\")"
param *.manager.trafficLightModuleType "\"org.car2x.veins.nodes.TrafficLight\""
param *.tls[*].mobility.x 0
param *.tls[*].mobility.y 0
param *.tls[*].mobility.z 3
param *.tls[*].applType "\"org.car2x.veins.modules.application.traci.TraCIDemoTrafficLightApp\""
param *.tls[*].logicType "\"org.car2x.veins.modules.world.traci.trafficLight.logics.TraCITrafficLightSimpleLogic\""
param *.rsu[0].mobility.x 1000
param *.rsu[0].mobility.y 1000
param *.rsu[0].mobility.z 3
param *.rsu[*].applType "\"RSUControlApp\""
param *.rsu[*].appl.headerLength "80 bit"
param *.rsu[*].appl.sendBeacons false
param *.rsu[*].appl.dataOnSch false
param *.rsu[*].appl.beaconInterval 1s
param *.rsu[*].appl.beaconUserPriority 7
param *.rsu[*].appl.dataUserPriority 5
param *.rsu[*].appl.netFile "\"./erlangen.net.xml\""
param *.rsu[*].appl.routeFile "\"./erlangen.rou.xml\""
param *.rsu[*].nic.phy80211p.antennaOffsetZ "0 m"
param *.connectionManager.sendDirect true
param *.connectionManager.maxInterfDist 4000m
param *.connectionManager.drawMaxIntfDist false
param *.**.nic.mac1609_4.useServiceChannel false
param *.**.nic.mac1609_4.txPower 50mW
param *.**.nic.mac1609_4.bitrate 6Mbps
param *.**.nic.phy80211p.minPowerLevel -110dBm
param *.**.nic.phy80211p.useNoiseFloor true
param *.**.nic.phy80211p.noiseFloor -98dBm
param *.**.nic.phy80211p.decider "xmldoc(\"config.xml\")"
param *.**.nic.phy80211p.analogueModels "xmldoc(\"config.xml\")"
param *.**.nic.phy80211p.usePropagationDelay true
param *.**.nic.phy80211p.antenna "xmldoc(\"antenna.xml\", \"/root/Antenna[@id='monopole']\")"
param *.node[*].nic.phy80211p.antennaOffsetY "0 m"
param *.node[*].nic.phy80211p.antennaOffsetZ "1.895 m"
param *.node[*].applType "\"VehicleControlApp\""
param *.node[*].appl.headerLength "80 bit"
param *.node[*].appl.sendBeacons true
param *.node[*].appl.dataOnSch false
param *.node[*].appl.beaconInterval 1s
param *.node[*].veinsmobility.x 0
param *.node[*].veinsmobility.y 0
param *.node[*].veinsmobility.z 0
param *.node[*].veinsmobility.setHostSpeed false
param *.node[*0].veinsmobility.accidentCount 1
param *.node[*0].veinsmobility.accidentStart 73s
param *.node[*0].veinsmobility.accidentDuration 50s

vector 0 RSUExampleScenario.node[0].veinsmobility posx ETV
vector 1 RSUExampleScenario.node[0].veinsmobility posy ETV
vector 2 RSUExampleScenario.node[1].veinsmobility posx ETV
vector 3 RSUExampleScenario.node[1].veinsmobility posy ETV
vector 4 RSUExampleScenario.node[2].veinsmobility posx ETV
vector 5 RSUExampleScenario.node[2].veinsmobility posy ETV
vector 6 RSUExampleScenario.node[3].veinsmobility posx ETV
vector 7 RSUExampleScenario.node[3].veinsmobility posy ETV
vector 8 RSUExampleScenario.node[4].veinsmobility posx ETV
vector 9 RSUExampleScenario.node[4].veinsmobility posy ETV
vector 10 RSUExampleScenario.node[5].veinsmobility posx ETV
vector 11 RSUExampleScenario.node[5].veinsmobility posy ETV
vector 12 RSUExampleScenario.node[6].veinsmobility posx ETV
vector 13 RSUExampleScenario.node[6].veinsmobility posy ETV
vector 14 RSUExampleScenario.node[7].veinsmobility posx ETV
vector 15 RSUExampleScenario.node[7].veinsmobility posy ETV
vector 16 RSUExampleScenario.node[8].veinsmobility posx ETV
vector 17 RSUExampleScenario.node[8].veinsmobility posy ETV
vector 18 RSUExampleScenario.node[9].veinsmobility posx ETV
vector 19 RSUExampleScenario.node[9].veinsmobility posy ETV
vector 20 RSUExampleScenario.node[10].veinsmobility posx ETV
vector 21 RSUExampleScenario.node[10].veinsmobility posy ETV
vector 22 RSUExampleScenario.node[11].veinsmobility posx ETV
vector 23 RSUExampleScenario.node[11].veinsmobility posy ETV
vector 24 RSUExampleScenario.node[12].veinsmobility posx ETV
vector 25 RSUExampleScenario.node[12].veinsmobility posy ETV
vector 26 RSUExampleScenario.node[13].veinsmobility posx ETV
vector 27 RSUExampleScenario.node[13].veinsmobility posy ETV
vector 28 RSUExampleScenario.node[14].veinsmobility posx ETV
vector 29 RSUExampleScenario.node[14].veinsmobility posy ETV
vector 30 RSUExampleScenario.node[15].veinsmobility posx ETV
vector 31 RSUExampleScenario.node[15].veinsmobility posy ETV
vector 32 RSUExampleScenario.node[16].veinsmobility posx ETV
vector 33 RSUExampleScenario.node[16].veinsmobility posy ETV
vector 34 RSUExampleScenario.node[17].veinsmobility posx ETV
vector 35 RSUExampleScenario.node[17].veinsmobility posy ETV
vector 36 RSUExampleScenario.node[18].veinsmobility posx ETV
vector 37 RSUExampleScenario.node[18].veinsmobility posy ETV
vector 38 RSUExampleScenario.node[19].veinsmobility posx ETV
vector 39 RSUExampleScenario.node[19].veinsmobility posy ETV
vector 40 RSUExampleScenario.node[20].veinsmobility posx ETV
vector 41 RSUExampleScenario.node[20].veinsmobility posy ETV
vector 42 RSUExampleScenario.node[21].veinsmobility posx ETV
vector 43 RSUExampleScenario.node[21].veinsmobility posy ETV
vector 44 RSUExampleScenario.node[22].veinsmobility posx ETV
vector 45 RSUExampleScenario.node[22].veinsmobility posy ETV
vector 46 RSUExampleScenario.node[23].veinsmobility posx ETV
vector 47 RSUExampleScenario.node[23].veinsmobility posy ETV
vector 48 RSUExampleScenario.node[24].veinsmobility posx ETV
vector 49 RSUExampleScenario.node[24].veinsmobility posy ETV
vector 50 RSUExampleScenario.node[25].veinsmobility posx ETV
vector 51 RSUExampleScenario.node[25].veinsmobility posy ETV
vector 52 RSUExampleScenario.node[26].veinsmobility posx ETV
vector 53 RSUExampleScenario.node[26].veinsmobility posy ETV
vector 54 RSUExampleScenario.node[27].veinsmobility posx ETV
vector 55 RSUExampleScenario.node[27].veinsmobility posy ETV
vector 56 RSUExampleScenario.node[28].veinsmobility posx ETV
vector 57 RSUExampleScenario.node[28].veinsmobility posy ETV
vector 58 RSUExampleScenario.node[29].veinsmobility posx ETV
vector 59 RSUExampleScenario.node[29].veinsmobility posy ETV
vector 60 RSUExampleScenario.node[30].veinsmobility posx ETV
vector 61 RSUExampleScenario.node[30].veinsmobility posy ETV
vector 62 RSUExampleScenario.node[31].veinsmobility posx ETV
vector 63 RSUExampleScenario.node[31].veinsmobility posy ETV
vector 64 RSUExampleScenario.node[32].veinsmobility posx ETV
vector 65 RSUExampleScenario.node[32].veinsmobility posy ETV
vector 66 RSUExampleScenario.node[0].veinsmobility speed ETV
vector 67 RSUExampleScenario.node[1].veinsmobility speed ETV
vector 68 RSUExampleScenario.node[2].veinsmobility speed ETV
vector 69 RSUExampleScenario.node[3].veinsmobility speed ETV
vector 70 RSUExampleScenario.node[4].veinsmobility speed ETV
vector 71 RSUExampleScenario.node[5].veinsmobility speed ETV
vector 72 RSUExampleScenario.node[6].veinsmobility speed ETV
vector 73 RSUExampleScenario.node[7].veinsmobility speed ETV
vector 74 RSUExampleScenario.node[8].veinsmobility speed ETV
vector 75 RSUExampleScenario.node[9].veinsmobility speed ETV
vector 76 RSUExampleScenario.node[10].veinsmobility speed ETV
vector 77 RSUExampleScenario.node[11].veinsmobility speed ETV
vector 78 RSUExampleScenario.node[12].veinsmobility speed ETV
vector 79 RSUExampleScenario.node[13].veinsmobility speed ETV
vector 80 RSUExampleScenario.node[14].veinsmobility speed ETV
vector 81 RSUExampleScenario.node[15].veinsmobility speed ETV
vector 82 RSUExampleScenario.node[16].veinsmobility speed ETV
vector 83 RSUExampleScenario.node[17].veinsmobility speed ETV
vector 84 RSUExampleScenario.node[18].veinsmobility speed ETV
vector 85 RSUExampleScenario.node[19].veinsmobility speed ETV
vector 86 RSUExampleScenario.node[20].veinsmobility speed ETV
vector 87 RSUExampleScenario.node[21].veinsmobility speed ETV
vector 88 RSUExampleScenario.node[22].veinsmobility speed ETV
vector 89 RSUExampleScenario.node[23].veinsmobility speed ETV
vector 90 RSUExampleScenario.node[24].veinsmobility speed ETV
vector 91 RSUExampleScenario.node[25].veinsmobility speed ETV
vector 92 RSUExampleScenario.node[26].veinsmobility speed ETV
vector 93 RSUExampleScenario.node[27].veinsmobility speed ETV
vector 94 RSUExampleScenario.node[28].veinsmobility speed ETV
vector 95 RSUExampleScenario.node[29].veinsmobility speed ETV
vector 96 RSUExampleScenario.node[30].veinsmobility speed ETV
vector 97 RSUExampleScenario.node[31].veinsmobility speed ETV
vector 98 RSUExampleScenario.node[32].veinsmobility speed ETV
vector 99 RSUExampleScenario.node[0].veinsmobility acceleration ETV
vector 100 RSUExampleScenario.node[0].veinsmobility co2emission ETV
vector 101 RSUExampleScenario.node[1].veinsmobility acceleration ETV
vector 102 RSUExampleScenario.node[1].veinsmobility co2emission ETV
vector 103 RSUExampleScenario.node[2].veinsmobility acceleration ETV
vector 104 RSUExampleScenario.node[2].veinsmobility co2emission ETV
vector 105 RSUExampleScenario.node[3].veinsmobility acceleration ETV
vector 106 RSUExampleScenario.node[3].veinsmobility co2emission ETV
vector 107 RSUExampleScenario.node[4].veinsmobility acceleration ETV
vector 108 RSUExampleScenario.node[4].veinsmobility co2emission ETV
vector 109 RSUExampleScenario.node[5].veinsmobility acceleration ETV
vector 110 RSUExampleScenario.node[5].veinsmobility co2emission ETV
vector 111 RSUExampleScenario.node[6].veinsmobility acceleration ETV
vector 112 RSUExampleScenario.node[6].veinsmobility co2emission ETV
vector 113 RSUExampleScenario.node[7].veinsmobility acceleration ETV
vector 114 RSUExampleScenario.node[7].veinsmobility co2emission ETV
vector 115 RSUExampleScenario.node[8].veinsmobility acceleration ETV
vector 116 RSUExampleScenario.node[8].veinsmobility co2emission ETV
vector 117 RSUExampleScenario.node[9].veinsmobility acceleration ETV
vector 118 RSUExampleScenario.node[9].veinsmobility co2emission ETV
vector 119 RSUExampleScenario.node[10].veinsmobility acceleration ETV
vector 120 RSUExampleScenario.node[10].veinsmobility co2emission ETV
vector 121 RSUExampleScenario.node[11].veinsmobility acceleration ETV
vector 122 RSUExampleScenario.node[11].veinsmobility co2emission ETV
vector 123 RSUExampleScenario.node[12].veinsmobility acceleration ETV
vector 124 RSUExampleScenario.node[12].veinsmobility co2emission ETV
vector 125 RSUExampleScenario.node[13].veinsmobility acceleration ETV
vector 126 RSUExampleScenario.node[13].veinsmobility co2emission ETV
vector 127 RSUExampleScenario.node[14].veinsmobility acceleration ETV
vector 128 RSUExampleScenario.node[14].veinsmobility co2emission ETV
vector 129 RSUExampleScenario.node[15].veinsmobility acceleration ETV
vector 130 RSUExampleScenario.node[15].veinsmobility co2emission ETV
vector 131 RSUExampleScenario.node[16].veinsmobility acceleration ETV
vector 132 RSUExampleScenario.node[16].veinsmobility co2emission ETV
vector 133 RSUExampleScenario.node[17].veinsmobility acceleration ETV
vector 134 RSUExampleScenario.node[17].veinsmobility co2emission ETV
vector 135 RSUExampleScenario.node[18].veinsmobility acceleration ETV
vector 136 RSUExampleScenario.node[18].veinsmobility co2emission ETV
vector 137 RSUExampleScenario.node[19].veinsmobility acceleration ETV
vector 138 RSUExampleScenario.node[19].veinsmobility co2emission ETV
vector 139 RSUExampleScenario.node[20].veinsmobility acceleration ETV
vector 140 RSUExampleScenario.node[20].veinsmobility co2emission ETV
vector 141 RSUExampleScenario.node[21].veinsmobility acceleration ETV
vector 142 RSUExampleScenario.node[21].veinsmobility co2emission ETV
vector 143 RSUExampleScenario.node[22].veinsmobility acceleration ETV
vector 144 RSUExampleScenario.node[22].veinsmobility co2emission ETV
vector 145 RSUExampleScenario.node[23].veinsmobility acceleration ETV
vector 146 RSUExampleScenario.node[23].veinsmobility co2emission ETV
vector 147 RSUExampleScenario.node[24].veinsmobility acceleration ETV
vector 148 RSUExampleScenario.node[24].veinsmobility co2emission ETV
vector 149 RSUExampleScenario.node[25].veinsmobility acceleration ETV
vector 150 RSUExampleScenario.node[25].veinsmobility co2emission ETV
vector 151 RSUExampleScenario.node[26].veinsmobility acceleration ETV
vector 152 RSUExampleScenario.node[26].veinsmobility co2emission ETV
vector 153 RSUExampleScenario.node[27].veinsmobility acceleration ETV
vector 154 RSUExampleScenario.node[27].veinsmobility co2emission ETV
vector 155 RSUExampleScenario.node[28].veinsmobility acceleration ETV
vector 156 RSUExampleScenario.node[28].veinsmobility co2emission ETV
vector 157 RSUExampleScenario.node[29].veinsmobility acceleration ETV
vector 158 RSUExampleScenario.node[29].veinsmobility co2emission ETV
vector 159 RSUExampleScenario.node[30].veinsmobility acceleration ETV
vector 160 RSUExampleScenario.node[30].veinsmobility co2emission ETV
vector 161 RSUExampleScenario.node[31].veinsmobility acceleration ETV
vector 162 RSUExampleScenario.node[31].veinsmobility co2emission ETV
vector 163 RSUExampleScenario.node[32].veinsmobility acceleration ETV
vector 164 RSUExampleScenario.node[32].veinsmobility co2emission ETV
132	17986	3	2.5444319130566
132	17987	4	3.5750728479024
132	42805	5	5.7999375288866
132	59237	6	7.3503680699899
132	65829	7	9.1965311406392
132	65830	8	10.229710604832
132	72416	9	0.973
132	88547	10	0.973
132	111169	11	4.4417553818849
132	111170	12	0.973
132	117764	13	4.1722092467617
132	117765	14	0.973
132	141885	15	5.2646940800972
132	158378	16	0.973
132	169634	17	0.973
132	169635	18	0.973
132	176221	19	0.973
132	193893	20	5.3186665342443
132	215748	21	6.1607681497948
132	215749	22	5.5222256880487
132	222357	23	5.5792297080571
132	222358	24	8.4989210715433
132	246612	25	5.1245999932879
132	262186	26	0.973
132	268828	27	2.2517035886511
131	17986	3	1.6484078801703
131	17987	4	1.8217439678498
131	42805	5	2.397175769927
131	59237	6	2.397207119083
131	65829	7	2.4700326033402
131	65830	8	2.3085488446933
131	72416	9	-0.52151485979557
131	88547	10	-0.52900543904398
131	111169	11	0.69220779852476
131	111170	12	-0.34762832007837
131	117764	13	0.59572265623137
131	117765	14	-0.73476749323308
131	141885	15	0.89373450339772
131	158378	16	-1.2341229527257
131	169634	17	-1.5345133301502
131	169635	18	-3.1564397076847
131	176221	19	-4.3223111890606
131	193893	20	2.3615741371177
131	215748	21	2.1253627492348
131	215749	22	1.5165522359312
131	222357	23	1.3267215030966
131	222358	24	1.9650654530153
131	246612	25	0.86210360527571
131	262186	26	-0.39899024409242
131	268828	27	0.055378132825718
82	11403	2	1.5644941205392
82	17986	3	3.2129020007094
82	17987	4	5.0346459685592
82	42805	5	7.4318217384862
82	59237	6	9.8290288575692
82	65829	7	12.299061460909
82	65830	8	14.607610305603
82	72416	9	14.086095445807
82	88547	10	13.557090006763
82	111169	11	14.249297805288
82	111170	12	13.90166948521
82	117764	13	14.497392141441
82	117765	14	13.762624648208
82	141885	15	14.656359151606
82	158378	16	13.42223619888
82	169634	17	11.88772286873
82	169635	18	8.7312831610449
82	176221	19	4.4089719719843
82	193893	20	6.7705461091021
82	215748	21	8.8959088583368
82	215749	22	10.412461094268
82	222357	23	11.739182597365
82	222358	24	13.70424805038
82	246612	25	14.566351655656
82	262186	26	14.167361411563
82	268828	27	14.222739544389
33	3	1	645.65140572817
33	11403	2	647.05067875623
33	17986	3	649.92427671506
33	17987	4	654.42723023668
33	42805	5	661.07420165798
33	59237	6	669.86521901744
33	65829	7	680.86541693878
33	65830	8	693.93036543344
33	72416	9	706.52887454207
33	88547	10	718.65424474091
33	111169	11	731.39872094314
33	111170	12	743.83228071194
33	117764	13	756.79865082124
33	117765	14	769.10784982221
33	141885	15	782.21639895715
33	158378	16	794.22115681643
33	169634	17	804.85345626511
33	169635	18	812.66265725041
33	176221	19	816.606012154
33	193893	20	822.43010419056
33	215748	21	830.62512161975
33	215749	22	840.95922339904
33	222357	23	852.69840599641
33	222358	24	866.40265404679
33	246612	25	880.96900570244
33	262186	26	895.13636711401
33	268828	27	909.3591066584
32	3	1	1229.9608318996
32	11403	2	1230.660507997
32	17986	3	1232.0973882663
32	17987	4	1234.3489924092
32	42805	5	1237.6726661529
32	59237	6	1242.0684235177
32	65829	7	1247.568833658
32	65830	8	1254.1016774937
32	72416	9	1260.4012884415
32	88547	10	1266.4643165499
32	111169	11	1272.8369151737
32	111170	12	1279.0540467854
32	117764	13	1285.5375986398
32	117765	14	1291.6925463496
32	141885	15	1298.2471917388
32	158378	16	1304.2499102656
32	169634	17	1309.5663607622
32	169635	18	1313.4711821657
32	176221	19	1315.4429711693
32	193893	20	1318.3667011575
32	215748	21	1320.1367015487
32	215749	22	1320.2
32	222357	23	1320.2
32	222358	24	1320.2
32	246612	25	1320.2
32	262186	26	1320.2
32	268828	27	1320.2
142	17986	3	2.6197349186662
142	17987	4	3.8485777986639
142	42805	5	6.1745642931035
142	59237	6	6.6927916096337
142	65829	7	5.3278667169245
142	65830	8	0.973
142	72416	9	0.973
142	88547	10	0.973
142	111169	11	3.4958630710359
142	111170	12	0.973
142	117764	13	1.235903332835
142	117765	14	2.036576264765
142	141885	15	5.1567538863162
142	158378	16	8.462234643639
142	169634	17	2.7720655796244
142	169635	18	0.973
142	176221	19	5.4874422668936
142	193893	20	0.973
142	215748	21	3.1541951501794
142	215749	22	0.973
142	222357	23	0.973
142	222358	24	0.973
142	246612	25	0.973
142	262186	26	0.973
142	268828	27	3.9067419099974
142	268829	28	5.7330783170011
142	275089	29	6.8351621683087
142	291426	30	8.1459957907913
142	313509	31	3.8902671393101
142	313510	32	1.7035266581691
142	319789	33	0.973
142	319790	34	0.973
142	341956	35	4.4251542215311
141	17986	3	1.5410411437973
141	17987	4	1.8703885182505
141	42805	5	2.4375427759252
141	59237	6	2.0831299236277
141	65829	7	1.3024518044192
141	65830	8	-0.45489813388662
141	72416	9	-3.7410650423146
141	88547	10	-0.58999288533446
141	111169	11	1.0840068769874
141	111170	12	-1.0800406684633
141	117764	13	-0.13362711460795
141	117765	14	0.35464159017429
141	141885	15	1.7538449847605
141	158378	16	2.5266649506055
141	169634	17	0.35756770798207
141	169635	18	-0.28152012559585
141	176221	19	1.2191061343066
141	193893	20	-1.2888626393396
141	215748	21	0.48714907390531
141	215749	22	-1.2813825658879
141	222357	23	-4.5
141	222358	24	-2.4905496756198
141	246612	25	-1.0626690505538
141	262186	26	-0.20762225696817
141	268828	27	2.4367390892236
141	268829	28	2.5471800411819
141	275089	29	2.3305842577945
141	291426	30	2.2777452077484
141	313509	31	0.68579354230401
141	313510	32	-0.054709573904983
141	319789	33	-0.45143584576435
141	319790	34	-0.3302179642953
141	341956	35	0.86443167794496
87	11403	2	2.0465621652314
87	17986	3	3.5876033090288
87	17987	4	5.4579918272793
87	42805	5	7.8955346032046
87	59237	6	9.9786645268323
87	65829	7	11.281116331252
87	65830	8	10.826218197365
87	72416	9	7.0851531550503
87	88547	10	6.4951602697159
87	111169	11	7.5791671467033
87	111170	12	6.4991264782399
87	117764	13	6.365499363632
87	117765	14	6.7201409538063
87	141885	15	8.4739859385668
87	158378	16	11.000650889172
87	169634	17	11.358218597154
87	169635	18	11.076698471558
87	176221	19	12.295804605865
87	193893	20	11.006941966525
87	215748	21	11.494091040431
87	215749	22	10.212708474543
87	222357	23	5.7127084745429
87	222358	24	3.222158798923
87	246612	25	2.1594897483692
87	262186	26	1.9518674914011
87	268828	27	4.3886065806246
87	268829	28	6.9357866218065
87	275089	29	9.266370879601
87	291426	30	11.544116087349
87	313509	31	12.229909629653
87	313510	32	12.175200055748
87	319789	33	11.723764209984
87	319790	34	11.393546245689
87	341956	35	12.257977923634
43	3	1	1420.2
43	11403	2	1420.2
43	17986	3	1423.4
43	17987	4	1423.4
43	42805	5	1423.4
43	59237	6	1423.4
43	65829	7	1423.4
43	65830	8	1423.4
43	72416	9	1423.4
43	88547	10	1424.0005958772
43	111169	11	1427.2877743434
43	111170	12	1432.9876734912
43	117764	13	1438.8343400598
43	117765	14	1444.1300588069
43	141885	15	1450.1220399853
43	158378	16	1457.9006336194
43	169634	17	1465.9320644651
43	169635	18	1473.7644315755
43	176221	19	1482.4588323339
43	193893	20	1490.2418744079
43	215748	21	1498.3693810707
43	215749	22	1505.5908182318
43	222357	23	1509.630291734
43	222358	24	1510.4336311521
43	246612	25	1508.452781704
43	262186	26	1506.9763279905
43	268828	27	1503.8731309565
43	268829	28	1498.968815184
43	275089	29	1492.4165362087
43	291426	30	1484.2536566834
43	313509	31	1475.6058504627
43	313510	32	1466.9967295478
43	319789	33	1458.7068202897
43	319790	34	1450.6504091565
43	341956	35	1441.9827557599
42	3	1	1209.5
42	11403	2	1207.4534378348
42	17986	3	1203.8658345257
42	17987	4	1198.4078426985
42	42805	5	1190.5123080953
42	59237	6	1180.5336435684
42	65829	7	1169.2525272372
42	65830	8	1158.4263090398
42	72416	9	1151.3411558848
42	88547	10	1144.921480235
42	111169	11	1138.4480290583
42	111170	12	1136.1200887297
42	117764	13	1137.8092385539
42	117765	14	1141.8600588069
42	141885	15	1147.8520399853
42	158378	16	1155.6306336194
42	169634	17	1163.6620644651
42	169635	18	1171.4944315755
42	176221	19	1180.1888323339
42	193893	20	1187.9718744079
42	215748	21	1196.0993810707
42	215749	22	1203.3208182318
42	222357	23	1207.360291734
42	222358	24	1210.2171911455
42	246612	25	1210.4475907585
42	262186	26	1209.2463279905
42	268828	27	1206.1431309565
42	268829	28	1201.238815184
42	275089	29	1194.6865362087
42	291426	30	1186.5236566834
42	313509	31	1177.8758504627
42	313510	32	1169.2667295478
42	319789	33	1160.9768202897
42	319790	34	1152.9204091565
42	341956	35	1144.2527557599
140	17986	3	2.3318018476891
140	17987	4	5.0814273261756
140	42805	5	5.0812502763914
140	59237	6	6.5005508039739
140	65829	7	7.7295302890705
140	65830	8	9.4070462073863
140	72416	9	0.973
140	88547	10	0.973
140	111169	11	0.973
140	111170	12	0.973
140	117764	13	3.0375609702501
140	117765	14	3.6967404857217
140	141885	15	4.6504193119977
140	158378	16	4.9712178079912
140	169634	17	8.5119581308237
140	169635	18	9.3471268697472
140	176221	19	0.973
140	193893	20	0.973
140	215748	21	0.973
140	215749	22	4.2951438959519
140	222357	23	5.5289332414119
140	222358	24	6.3484393309097
140	246612	25	8.0184892089086
140	262186	26	6.3754550587623
140	268828	27	9.2149342976076
140	268829	28	0.973
140	275089	29	0.973
140	291426	30	0.973
140	313509	31	0.973
140	313510	32	2.5059183273263
140	319789	33	4.6436674208469
140	319790	34	4.2993694127535
140	341956	35	5.2238387619155
140	357174	36	6.6149955715566
140	363090	37	9.123897717653
140	363091	38	12.083544669305
139	17986	3	1.3036597494269
139	17987	4	2.5662959037116
139	42805	5	1.8854387812782
139	59237	6	2.0340808888432
139	65829	7	2.0535218579695
139	65830	8	2.1705647335853
139	72416	9	-3.4978579005456
139	88547	10	-4.5
139	111169	11	-2.1448114967614
139	111170	12	-0.54687075561378
139	117764	13	1.4471580943558
139	117765	14	1.4845834727632
139	141885	15	1.6259591176407
139	158378	16	1.4688118616352
139	169634	17	2.3572174035013
139	169635	18	2.1767632628093
139	176221	19	-0.86661680519659
139	193893	20	-4.5
139	215748	21	-3.7267410079483
139	215749	22	1.7774733030237
139	222357	23	1.9178166325903
139	222358	24	1.849658973559
139	246612	25	2.0450410797959
139	262186	26	1.3157359163975
139	268828	27	1.8601164720254
139	268829	28	-2.055815401837
139	275089	29	-4.5
139	291426	30	-3.5346208456904
139	313509	31	-2.478835925833
139	313510	32	1.1677525830222
139	319789	33	2.1051136294846
139	319790	34	1.4746964416467
139	341956	35	1.58607712097
139	357174	36	1.7959781064186
139	363090	37	2.2145512616495
139	363091	38	2.5575819627848
86	11403	2	2.0578714020317
86	17986	3	3.3615311514586
86	17987	4	5.9278270551702
86	42805	5	7.8132658364484
86	59237	6	9.8473467252916
86	65829	7	11.900868583261
86	65830	8	14.071433316846
86	72416	9	10.573575416301
86	88547	10	6.0735754163008
86	111169	11	3.9287639195393
86	111170	12	3.3818931639256
86	117764	13	4.8290512582814
86	117765	14	6.3136347310446
86	141885	15	7.9395938486853
86	158378	16	9.4084057103205
86	169634	17	11.765623113822
86	169635	18	13.942386376631
86	176221	19	13.075769571434
86	193893	20	8.5757695714344
86	215748	21	4.8490285634861
86	215749	22	6.6265018665099
86	222357	23	8.5443184991001
86	222358	24	10.393977472659
86	246612	25	12.439018552455
86	262186	26	13.754754468853
86	268828	27	15.614870940878
86	268829	28	13.559055539041
86	275089	29	9.059055539041
86	291426	30	5.5244346933506
86	313509	31	3.0455987675177
86	313510	32	4.2133513505399
86	319789	33	6.3184649800244
86	319790	34	7.7931614216711
86	341956	35	9.3792385426411
86	357174	36	11.17521664906
86	363090	37	13.389767910709
86	363091	38	15.947349873494
41	3	1	1309.5
41	11403	2	1307.442128598
41	17986	3	1304.0805974465
41	17987	4	1298.1527703913
41	42805	5	1290.3395045549
41	59237	6	1280.4921578296
41	65829	7	1268.5912892463
41	65830	8	1254.5198559295
41	72416	9	1243.9462805132
41	88547	10	1237.8727050969
41	111169	11	1234.1933518186
41	111170	12	1235.5679519866
41	117764	13	1240.3970032449
41	117765	14	1246.7106379759
41	141885	15	1254.6502318246
41	158378	16	1264.0586375349
41	169634	17	1275.8242606487
41	169635	18	1289.7666470254
41	176221	19	1302.8424165968
41	193893	20	1311.4181861682
41	215748	21	1316.2539301522
41	215749	22	1322.4184644449
41	222357	23	1326.2448147046
41	222358	24	1326.6
41	246612	25	1326.6
41	262186	26	1326.6
41	268828	27	1326.6
41	268829	28	1326.6
41	275089	29	1326.6
41	291426	30	1326.6
41	313509	31	1324.3963547095
41	313510	32	1323.4
41	319789	33	1323.4
41	319790	34	1323.4
41	341956	35	1323.4
41	357174	36	1323.4
41	363090	37	1323.4
41	363091	38	1323.4
40	3	1	629.8
40	11403	2	629.8
40	17986	3	626.6
40	17987	4	626.6
40	42805	5	626.6
40	59237	6	626.6
40	65829	7	626.6
40	65830	8	626.6
40	72416	9	626.6
40	88547	10	626.6
40	111169	11	625.78670363712
40	111170	12	623.4
40	117764	13	623.4
40	117765	14	623.4
40	141885	15	623.4
40	158378	16	623.4
40	169634	17	623.4
40	169635	18	623.4
40	176221	19	623.4
40	193893	20	623.4
40	215748	21	623.63912243164
40	215749	22	625.69107866695
40	222357	23	632.91370293195
40	222358	24	643.28201256998
40	246612	25	655.72103112244
40	262186	26	669.47578559129
40	268828	27	685.09065653217
40	268829	28	698.64971207121
40	275089	29	707.70876761025
40	291426	30	713.2332023036
40	313509	31	714.56817735474
40	313510	32	710.71784757834
40	319789	33	704.39938259832
40	319790	34	696.60622117665
40	341956	35	687.226982634
40	357174	36	676.05176598494
40	363090	37	662.66199807424
40	363091	38	646.71464820074
126	17986	3	2.7702894064821
126	17987	4	4.4343076483746
126	42805	5	4.9916969067913
126	59237	6	7.5373550810737
126	65829	7	8.6688386127614
126	65830	8	1.7838962170204
126	72416	9	5.6625616526763
126	88547	10	0.973
126	111169	11	0.973
126	111170	12	2.3429402417451
126	117764	13	5.0282722753436
126	117765	14	1.7831043263405
126	141885	15	2.132095441912
126	158378	16	0.973
126	169634	17	2.537795266746
126	169635	18	0.973
126	176221	19	5.555579460572
126	193893	20	0.973
126	215748	21	1.27895949687
126	215749	22	0.973
126	222357	23	1.8562179734785
126	222358	24	1.668564753649
126	246612	25	2.1445324485883
126	262186	26	1.6529581463713
126	268828	27	2.4468876903287
126	268829	28	2.7152319970422
126	275089	29	4.5094168637785
126	291426	30	0.973
126	313509	31	1.7153182026916
126	313510	32	0.973
126	319789	33	0.973
126	319790	34	0.973
126	341956	35	2.2584849161133
126	357174	36	2.376408218595
126	363090	37	0.973
126	363091	38	4.0801003795669
126	369007	39	7.5873137599852
126	381249	40	8.7412433533251
126	401496	41	5.2083039348054
126	401497	42	3.9052418847451
126	407060	43	0.973
125	17986	3	1.5186360970139
125	17987	4	2.0630994800711
125	42805	5	1.820642750198
125	59237	6	2.3637243047589
125	65829	7	2.2507543020416
125	65830	8	-0.035174299722872
125	72416	9	1.1204723274801
125	88547	10	-0.60880998936482
125	111169	11	-0.31896314842161
125	111170	12	0.13725160486065
125	117764	13	0.91449680530932
125	117765	14	-0.066586872958577
125	141885	15	0.038345160381869
125	158378	16	-0.87635279202368
125	169634	17	0.19131638414692
125	169635	18	-0.38492941299919
125	176221	19	1.0765472446335
125	193893	20	-0.53169154280331
125	215748	21	-0.21014114283025
125	215749	22	-0.38906518246513
125	222357	23	-0.013392625399865
125	222358	24	-0.073708114400507
125	246612	25	0.08174600841012
125	262186	26	-0.078971386840568
125	268828	27	0.17737261720467
125	268829	28	0.25265314246062
125	275089	29	0.76127911631484
125	291426	30	-0.78580573385116
125	313509	31	-0.066822656919248
125	313510	32	-0.33630229604896
125	319789	33	-2.8350795914149
125	319790	34	-4.5
125	341956	35	0.61623250555817
125	357174	36	0.61072189107072
125	363090	37	-0.97571109118871
125	363091	38	1.5571256117662
125	369007	39	2.5863150627585
125	381249	40	2.4002554730978
125	401496	41	1.0461624762927
125	401497	42	0.58486307938583
125	407060	43	-0.91314231727738
79	11403	2	2.475277706515
79	17986	3	3.993913803529
79	17987	4	6.0570132836001
79	42805	5	7.8776560337981
79	59237	6	10.241380338557
79	65829	7	12.492134640599
79	65830	8	12.456960340876
79	72416	9	13.577432668356
79	88547	10	12.968622678991
79	111169	11	12.649659530569
79	111170	12	12.78691113543
79	117764	13	13.701407940739
79	117765	14	13.634821067781
79	141885	15	13.673166228163
79	158378	16	12.796813436139
79	169634	17	12.988129820286
79	169635	18	12.603200407287
79	176221	19	13.67974765192
79	193893	20	13.148056109117
79	215748	21	12.937914966287
79	215749	22	12.548849783822
79	222357	23	12.535457158422
79	222358	24	12.461749044021
79	246612	25	12.543495052431
79	262186	26	12.464523665591
79	268828	27	12.641896282795
79	268829	28	12.894549425256
79	275089	29	13.655828541571
79	291426	30	12.87002280772
79	313509	31	12.803200150801
79	313510	32	12.466897854752
79	319789	33	9.6318182633367
79	319790	34	5.1318182633367
79	341956	35	5.7480507688949
79	357174	36	6.3587726599656
79	363090	37	5.3830615687769
79	363091	38	6.9401871805431
79	369007	39	9.5265022433016
79	381249	40	11.926757716399
79	401496	41	12.972920192692
79	401497	42	13.557783272078
79	407060	43	12.644640954801
27	3	1	230.1
27	11403	2	232.57527770651
27	17986	3	236.56919151004
27	17987	4	242.62620479364
27	42805	5	250.50386082744
27	59237	6	260.745241166
27	65829	7	273.2373758066
27	65830	8	285.69433614747
27	72416	9	299.27176881583
27	88547	10	312.24039149482
27	111169	11	324.89005102539
27	111170	12	337.67696216082
27	117764	13	351.37837010156
27	117765	14	365.01319116934
27	141885	15	378.6863573975
27	158378	16	391.48317083364
27	169634	17	404.47130065393
27	169635	18	417.07450106121
27	176221	19	430.75424871314
27	193893	20	443.90230482225
27	215748	21	456.84021978854
27	215749	22	469.38906957236
27	222357	23	481.92452673078
27	222358	24	494.3862757748
27	246612	25	506.92977082724
27	262186	26	519.39429449283
27	268828	27	532.03619077562
27	268829	28	544.93074020088
27	275089	29	558.58656874245
27	291426	30	571.45659155017
27	313509	31	584.25979170097
27	313510	32	596.72668955572
27	319789	33	606.35850781906
27	319790	34	611.49032608239
27	341956	35	617.19055698048
27	357174	36	620.19535351196
27	363090	37	620.2
27	363091	38	620.2
27	369007	39	620.2
27	381249	40	620.2
27	401496	41	620.2
27	401497	42	620.2
27	407060	43	620.2
26	3	1	1220.2
26	11403	2	1220.2
26	17986	3	1220.2
26	17987	4	1220.2
26	42805	5	1220.2
26	59237	6	1220.2
26	65829	7	1220.2
26	65830	8	1220.2
26	72416	9	1220.2
26	88547	10	1220.2
26	111169	11	1220.2
26	111170	12	1220.2
26	117764	13	1220.2
26	117765	14	1220.2
26	141885	15	1220.2
26	158378	16	1220.2
26	169634	17	1220.2
26	169635	18	1220.2
26	176221	19	1220.2
26	193893	20	1220.2
26	215748	21	1220.2
26	215749	22	1220.2
26	222357	23	1220.2
26	222358	24	1220.2
26	246612	25	1220.2
26	262186	26	1220.2
26	268828	27	1220.2
26	268829	28	1220.2
26	275089	29	1220.2
26	291426	30	1220.2
26	313509	31	1220.2
26	313510	32	1220.2
26	319789	33	1220.2
26	319790	34	1220.2
26	341956	35	1219.7656658117
26	357174	36	1214.6325254163
26	363090	37	1209.24978892
26	363091	38	1202.3096017394
26	369007	39	1192.7830994961
26	381249	40	1180.8563417797
26	401496	41	1167.883421587
26	401497	42	1154.325638315
26	407060	43	1141.6809973602
110	17986	3	3.1261287497072
110	17987	4	4.3965252215164
110	42805	5	6.8617852595912
110	59237	6	8.5229705992383
110	65829	7	10.182381257675
110	65830	8	8.9169842399278
110	72416	9	0.973
110	88547	10	0.973
110	111169	11	0.973
110	111170	12	3.0790381960914
110	117764	13	0.973
110	117765	14	2.1454436289668
110	141885	15	7.0114483378455
110	158378	16	5.2416711215854
110	169634	17	7.7532452446997
110	169635	18	8.334252003419
110	176221	19	0.973
110	193893	20	0.973
110	215748	21	4.1385001272933
110	215749	22	4.9249909855885
110	222357	23	2.4301595522492
110	222358	24	8.3345922065948
110	246612	25	9.4700934400081
110	262186	26	10.226579836124
110	268828	27	0.973
110	268829	28	3.2253335715376
110	275089	29	4.2407558724029
110	291426	30	0.973
110	313509	31	5.0148987147512
110	313510	32	1.4110319733819
110	319789	33	0.973
110	319790	34	0.973
110	341956	35	6.2572039875699
110	357174	36	0.973
110	363090	37	0.973
110	363091	38	4.8258508920921
110	369007	39	0.973
110	381249	40	0.973
110	401496	41	0.973
110	401497	42	0.973
110	407060	43	5.1588136619338
110	407061	44	5.0934339869149
110	423319	45	7.891550226373
110	437808	46	6.5858884426705
110	443007	47	10.321925888333
110	443008	48	2.1940029410197
110	448199	49	0.973
110	460080	50	0.973
110	480342	51	0.973
110	480343	52	0.973
110	485513	53	2.0385282810128
110	485514	54	3.7353158998212
110	502335	55	5.7561683356667
110	516999	56	5.7425170238452
110	522176	57	6.2876253523112
110	522177	58	7.9135947485163
110	527357	59	7.9660318119922
109	17986	3	1.9681667215191
109	17987	4	2.0848777350271
109	42805	5	2.5767042224528
109	59237	6	2.5374351908918
109	65829	7	2.5068282209337
109	65830	8	1.8167989107446
109	72416	9	-2.0348346173948
109	88547	10	-3.274455402062
109	111169	11	-4.5
109	111170	12	1.0238971389311
109	117764	13	-0.47993969300296
109	117765	14	0.43984050659929
109	141885	15	2.4814004011219
109	158378	16	1.4020640265662
109	169634	17	1.9650872096419
109	169635	18	1.8297892361529
109	176221	19	-4.5
109	193893	20	-3.4727024910972
109	215748	21	1.4162962283241
109	215749	22	1.4953372959979
109	222357	23	0.34157962212357
109	222358	24	2.2885861576768
109	246612	25	2.2032720476622
109	262186	26	2.0574501876763
109	268828	27	-1.0175702715525
109	268829	28	0.2828672954347
109	275089	29	0.52363141695969
109	291426	30	-0.59730136797298
109	313509	31	0.71724571192171
109	313510	32	-0.21588186577428
109	319789	33	-0.60367696338799
109	319790	34	-0.37794414199889
109	341956	35	1.0540628155228
109	357174	36	-0.43799424646422
109	363090	37	-0.4410324328579
109	363091	38	0.69248874050099
109	369007	39	-0.70231172032654
109	381249	40	-0.87401813381956
109	401496	41	-4.5
109	401497	42	-4.0491660503438
109	407060	43	2.012448851252
109	407061	44	1.583816642873
109	423319	45	2.2328853990184
109	437808	46	1.5059536199551
109	443007	47	2.2459886800498
109	443008	48	0.010366957091257
109	448199	49	-2.3979393568488
109	460080	50	-3.2520425893716
109	480342	51	-3.8313389006071
109	480343	52	-2.1463605987451
109	485513	53	0.71387698068283
109	485514	54	1.6529342174064
109	502335	55	2.179862521519
109	516999	56	1.7345255633816
109	522176	57	1.6366048923461
109	522177	58	1.8629379608436
109	527357	59	1.6270435677376
71	11403	2	1.8798766718246
71	17986	3	3.8480433933437
71	17987	4	5.9329211283708
71	42805	5	8.5096253508236
71	59237	6	11.047060541715
71	65829	7	13.553888762649
71	65830	8	15.370687673394
71	72416	9	13.335853055999
71	88547	10	10.061397653937
71	111169	11	5.5613976539369
71	111170	12	6.585294792868
71	117764	13	6.105355099865
71	117765	14	6.5451956064643
71	141885	15	9.0265960075863
71	158378	16	10.428660034152
71	169634	17	12.393747243794
71	169635	18	14.223536479947
71	176221	19	9.7235364799473
71	193893	20	6.2508339888502
71	215748	21	7.6671302171743
71	215749	22	9.1624675131721
71	222357	23	9.5040471352957
71	222358	24	11.792633292972
71	246612	25	13.995905340635
71	262186	26	16.053355528311
71	268828	27	15.035785256758
71	268829	28	15.318652552193
71	275089	29	15.842283969153
71	291426	30	15.24498260118
71	313509	31	15.962228313102
71	313510	32	15.746346447327
71	319789	33	15.142669483939
71	319790	34	14.76472534194
71	341956	35	15.818788157463
71	357174	36	15.380793910999
71	363090	37	14.939761478141
71	363091	38	15.632250218642
71	369007	39	14.929938498315
71	381249	40	14.055920364496
71	401496	41	9.5559203644959
71	401497	42	5.5067543141521
71	407060	43	7.5192031654041
71	407061	44	9.1030198082771
71	423319	45	11.335905207296
71	437808	46	12.841858827251
71	443007	47	15.0878475073
71	443008	48	15.098214464392
71	448199	49	12.700275107543
71	460080	50	9.4482325181713
71	480342	51	5.6168936175642
71	480343	52	3.4705330188191
71	485513	53	4.184409999502
71	485514	54	5.8373442169084
71	502335	55	8.0172067384274
71	516999	56	9.751732301809
71	522176	57	11.388337194155
71	522177	58	13.251275154999
71	527357	59	14.878318722736
11	3	1	1247.7562254801
11	11403	2	1249.0854919807
11	17986	3	1251.8064551442
11	17987	4	1256.0016416823
11	42805	5	1262.0188235972
11	59237	6	1269.8302336375
11	65829	7	1279.4142295218
11	65830	8	1290.2828894304
11	72416	9	1299.7127116047
11	88547	10	1306.8271564253
11	111169	11	1310.7596375869
11	111170	12	1315.7105905658
11	117764	13	1319.8438622705
11	117765	14	1323.4
11	141885	15	1323.4
11	158378	16	1323.4
11	169634	17	1323.4
11	169635	18	1323.4
11	176221	19	1323.4
11	193893	20	1323.4
11	215748	21	1324.3703246798
11	215749	22	1330.987208611
11	222357	23	1340.4471524851
11	222358	24	1352.2397857781
11	246612	25	1366.2356911187
11	262186	26	1382.289046647
11	268828	27	1397.3248319038
11	268829	28	1412.643484456
11	275089	29	1428.4857684251
11	291426	30	1443.7307510263
11	313509	31	1459.6929793394
11	313510	32	1475.4393257867
11	319789	33	1490.5819952707
11	319790	34	1505.3467206126
11	341956	35	1521.1655087701
11	357174	36	1536.5463026811
11	363090	37	1551.4860641592
11	363091	38	1567.1183143779
11	369007	39	1582.0482528762
11	381249	40	1596.1041732407
11	401496	41	1605.6600936052
11	401497	42	1611.1668479193
11	407060	43	1618.6860510847
11	407061	44	1627.789070893
11	423319	45	1639.1249761003
11	437808	46	1651.9668349276
11	443007	47	1667.0546824349
11	443008	48	1682.1528968992
11	448199	49	1694.8531720068
11	460080	50	1704.301404525
11	480342	51	1709.9182981425
11	480343	52	1711.1946145591
11	485513	53	1707.2367588392
11	485514	54	1701.3994146222
11	502335	55	1693.3822078838
11	516999	56	1683.630475582
11	522176	57	1672.2421383879
11	522177	58	1658.9908632329
11	527357	59	1644.1125445101
10	3	1	1640.9662254801
10	11403	2	1642.2954919807
10	17986	3	1645.0164551442
10	17987	4	1649.2116416823
10	42805	5	1655.2288235972
10	59237	6	1663.0402336375
10	65829	7	1672.6242295218
10	65830	8	1683.4928894304
10	72416	9	1692.9227116047
10	88547	10	1700.0371564253
10	111169	11	1703.9696375869
10	111170	12	1708.2990510857
10	117764	13	1705.9100847684
10	117765	14	1699.3834026148
10	141885	15	1690.3568066072
10	158378	16	1679.9281465731
10	169634	17	1667.5343993293
10	169635	18	1653.3108628493
10	176221	19	1643.5873263694
10	193893	20	1637.3364923805
10	215748	21	1629.7827922003
10	215749	22	1624.0303987699
10	222357	23	1623.4
10	222358	24	1623.4
10	246612	25	1623.4
10	262186	26	1623.4
10	268828	27	1623.4
10	268829	28	1623.4
10	275089	29	1623.4
10	291426	30	1623.4
10	313509	31	1623.4
10	313510	32	1623.4
10	319789	33	1623.4
10	319790	34	1623.4
10	341956	35	1623.4
10	357174	36	1623.4
10	363090	37	1623.4
10	363091	38	1623.4
10	369007	39	1623.4
10	381249	40	1623.4
10	401496	41	1623.4
10	401497	42	1623.4
10	407060	43	1623.4
10	407061	44	1623.4
10	423319	45	1623.4
10	437808	46	1623.4
10	443007	47	1623.4
10	443008	48	1623.4
10	448199	49	1623.4
10	460080	50	1623.4
10	480342	51	1623.4
10	480343	52	1625.8502569606
10	485513	53	1626.6
10	485514	54	1626.6
10	502335	55	1626.6
10	516999	56	1626.6
10	522176	57	1626.6
10	522177	58	1626.6
10	527357	59	1626.6
0	3	1	609.5
0	11403	2	608.01655605386
0	17986	3	604.01066557181
0	17987	4	597.9897431379
0	42805	5	589.90304374441
0	59237	6	579.55473395558
0	65829	7	566.74934877297
0	65830	8	553.31877596912
0	72416	9	543.85571805486
0	88547	10	537.66891093255
0	111169	11	534.56008466919
0	111170	12	534.68547169072
0	117764	13	538.21592780768
0	117765	14	543.99923414166
0	141885	15	551.32114080591
0	158378	16	560.94050064546
0	169634	17	572.61080443364
0	169635	18	586.86628977734
0	176221	19	599.48154985209
0	193893	20	608.12775710534
0	215748	21	612.59032178337
0	215749	22	619.00214596062
0	222357	23	626.822471444
0	222358	24	635.71485252698
0	246612	25	645.95150389001
0	262186	26	657.93076004198
0	268828	27	670.90897995894
0	268829	28	684.17497726773
0	275089	29	697.69866797261
0	291426	30	710.41536244791
0	313509	31	724.06588884055
0	313510	32	736.99483712769
0	319789	33	750.10846211845
0	319790	34	763.1186208967
0	341956	35	776.03455633461
0	357174	36	789.3902145255
0	363090	37	800.29469613864
0	363091	38	807.41310745488
0	369007	39	810.50649538478
0	381249	40	810.71267686914
0	401496	41	813.07204807017
0	401497	42	817.39115255006
0	407060	43	823.15806494841
0	407061	44	826.6
0	423319	45	826.6
0	437808	46	826.6
0	443007	47	829.8
0	443008	48	829.8
0	448199	49	829.8
0	460080	50	829.8
0	480342	51	829.8
0	480343	52	829.8
0	485513	53	829.8
0	485514	54	829.8
0	502335	55	829.8
0	516999	56	829.8
0	522176	57	829.8
0	522177	58	829.8
0	527357	59	830.05527197214
0	539017	60	831.32665003248
1	3	1	1020.2
1	11403	2	1020.2
1	17986	3	1023.4
1	17987	4	1023.4
1	42805	5	1023.4
1	59237	6	1023.4
1	65829	7	1023.4
1	65830	8	1023.4
1	72416	9	1023.4
1	88547	10	1023.4
1	111169	11	1023.9599435539
1	111170	12	1026.1236477938
1	117764	13	1026.6
1	117765	14	1026.6
1	141885	15	1026.6
1	158378	16	1026.6
1	169634	17	1026.6
1	169635	18	1026.6
1	176221	19	1026.6
1	193893	20	1026.6
1	215748	21	1026.6
1	215749	22	1026.4300329745
1	222357	23	1025.3808344936
1	222358	24	1021.4720252112
1	246612	25	1016.3140652793
1	262186	26	1010.3240891917
1	268828	27	1003.8346022005
1	268829	28	997.20121815315
1	275089	29	990.43897992143
1	291426	30	984.0802632487
1	313509	31	977.25460348837
1	313510	32	970.78975374348
1	319789	33	964.23256028171
1	319790	34	957.72710293202
1	341956	35	951.26875998979
1	357174	36	944.59054289661
1	363090	37	939.13798530189
1	363091	38	935.57857284547
1	369007	39	934.03178901392
1	381249	40	933.92869228193
1	401496	41	932.6476609764
1	401497	42	930.15203049881
1	407060	43	925.41911635027
1	407061	44	916.56174841998
1	423319	45	904.8076685013
1	437808	46	891.55349921046
1	443007	47	880.24377436407
1	443008	48	867.01811853994
1	448199	49	853.98886568851
1	460080	50	838.48806790402
1	480342	51	823.29117654514
1	480343	52	808.98650719306
1	485513	53	794.37270324351
1	485514	54	779.68557332527
1	502335	55	765.39926688754
1	516999	56	753.35876474895
1	522176	57	745.81826261037
1	522177	58	742.77776047178
1	527357	59	737.41382757738
1	539017	60	730.33525734543
2	3	1	909.5
2	11403	2	907.01355453439
2	17986	3	902.22672929333
2	17987	4	895.37428343925
2	42805	5	886.32585508709
2	59237	6	875.41316938754
2	65829	7	862.60906650079
2	65830	8	854.30496361405
2	72416	9	850.23658344545
2	88547	10	844.24692125434
2	111169	11	836.50274557978
2	111170	12	826.25738390371
2	117764	13	814.06911161657
2	117765	14	799.53215342891
2	141885	15	785.83401384237
2	158378	16	771.87392193008
2	169634	17	757.56399623834
2	169635	18	743.94761791788
2	176221	19	729.57096304599
2	193893	20	716.73695854257
2	215748	21	706.57598577125
2	215749	22	696.79743499239
2	222357	23	686.98723373536
2	222358	24	676.8923236847
2	246612	25	667.36974791929
2	262186	26	657.66900107171
2	268828	27	647.88588068169
2	268829	28	641.28470805698
2	275089	29	637.86548319758
2	291426	30	633.20299509016
2	313509	31	627.72962324134
2	313510	32	622.21311182193
2	319789	33	620.2
2	319790	34	620.2
2	341956	35	620.2
2	357174	36	620.2
2	363090	37	620.2
2	363091	38	620.2
2	369007	39	620.2
2	381249	40	619.58304520402
2	401496	41	616.43128867977
2	401497	42	609.97295669811
2	407060	43	600.95062425104
2	407061	44	589.70413436239
2	423319	45	576.74143930121
2	437808	46	563.11641955658
2	443007	47	548.60113554076
2	443008	48	534.0669606637
2	448199	49	520.741763338
2	460080	50	506.44718693456
2	480342	51	492.79188581631
2	480343	52	478.29561505788
2	485513	53	463.93719761366
2	485514	54	453.83141853276
2	502335	55	448.22563945186
2	516999	56	445.72672776296
2	522176	57	448.84480773801
2	522177	58	454.79783153724
2	527357	59	463.16789959778
2	539017	60	473.50486535709
3	3	1	1120.2
3	11403	2	1120.2
3	17986	3	1120.2
3	17987	4	1120.2
3	42805	5	1120.2
3	59237	6	1120.2
3	65829	7	1120.2
3	65830	8	1120.2
3	72416	9	1120.2
3	88547	10	1120.2
3	111169	11	1120.2
3	111170	12	1120.2
3	117764	13	1120.2
3	117765	14	1120.2
3	141885	15	1120.2
3	158378	16	1120.2
3	169634	17	1120.2
3	169635	18	1120.3640832717
3	176221	19	1121.913125879
3	193893	20	1127.1796165948
3	215748	21	1136.6340142287
3	215749	22	1146.4125650076
3	222357	23	1156.2227662646
3	222358	24	1166.3176763153
3	246612	25	1175.8402520807
3	262186	26	1185.5409989283
3	268828	27	1195.3241193183
3	268829	28	1201.925291943
3	275089	29	1205.3445168024
3	291426	30	1210.4332224572
3	313509	31	1217.1721077004
3	313510	32	1226.8333966405
3	319789	33	1239.5067650647
3	319790	34	1253.9398987808
3	341956	35	1267.3704440928
3	357174	36	1281.7916712792
3	363090	37	1296.1096494711
3	363091	38	1307.3108787079
3	369007	39	1314.249643184
3	381249	40	1317.49492466
3	401496	41	1319.9383873315
3	401497	42	1320.2
3	407060	43	1323.4
3	407061	44	1323.4
3	423319	45	1323.4
3	437808	46	1323.4
3	443007	47	1323.4
3	443008	48	1323.4
3	448199	49	1323.4
3	460080	50	1323.4
3	480342	51	1323.4
3	480343	52	1323.4
3	485513	53	1323.4
3	485514	54	1323.4
3	502335	55	1323.4
3	516999	56	1325.0934555259
3	522176	57	1326.6
3	522177	58	1326.6
3	527357	59	1326.6
3	539017	60	1326.6
4	3	1	652.38
4	11403	2	653.70055058887
4	17986	3	657.18766523543
4	17987	4	662.39896777332
4	42805	5	669.95496276677
4	59237	6	679.65017735522
4	65829	7	690.88801620018
4	65830	8	704.40365063364
4	72416	9	718.11415590401
4	88547	10	731.28036405699
4	111169	11	745.07790805805
4	111170	12	758.96063461781
4	117764	13	773.15021097117
4	117765	14	786.37242789254
4	141885	15	800.55405279998
4	158378	16	813.72369646498
4	169634	17	824.21376412713
4	169635	18	828.9108376549
4	176221	19	829.8
4	193893	20	829.8
4	215748	21	829.8
4	215749	22	829.8
4	222357	23	829.8
4	222358	24	829.8
4	246612	25	829.8
4	262186	26	829.8
4	268828	27	829.8
4	268829	28	829.8
4	275089	29	829.8
4	291426	30	829.8
4	313509	31	829.8
4	313510	32	829.8
4	319789	33	829.8
4	319790	34	829.8
4	341956	35	829.8
4	357174	36	829.8
4	363090	37	829.8
4	363091	38	829.8
4	369007	39	829.8
4	381249	40	829.8
4	401496	41	829.8
4	401497	42	829.8
4	407060	43	829.8
4	407061	44	829.8
4	423319	45	829.8
4	437808	46	829.8
4	443007	47	829.8
4	443008	48	829.8
4	448199	49	826.6
4	460080	50	826.6
4	480342	51	826.6
4	480343	52	826.6
4	485513	53	826.6
4	485514	54	826.6
4	502335	55	826.6
4	516999	56	826.6
4	522176	57	826.6
4	522177	58	826.56823451135
4	527357	59	826.18150542038
4	539017	60	823.81625009364
5	3	1	1229.8
5	11403	2	1229.8
5	17986	3	1229.8
5	17987	4	1229.8
5	42805	5	1229.8
5	59237	6	1229.8
5	65829	7	1229.8
5	65830	8	1229.8
5	72416	9	1229.8
5	88547	10	1229.8
5	111169	11	1229.8
5	111170	12	1229.8
5	117764	13	1229.8
5	117765	14	1229.8
5	141885	15	1229.8
5	158378	16	1228.2306964535
5	169634	17	1221.0586132844
5	169635	18	1208.954659047
5	176221	19	1195.6251136209
5	193893	20	1181.5670880066
5	215748	21	1168.5188922757
5	215749	22	1154.4901530547
5	222357	23	1141.348565238
5	222358	24	1127.4365937292
5	246612	25	1113.1986047323
5	262186	26	1100.1917322148
5	268828	27	1087.1124917412
5	268829	28	1073.9712409176
5	275089	29	1060.578213276
5	291426	30	1047.0952376005
5	313509	31	1033.9659182966
5	313510	32	1020.4469679666
5	319789	33	1006.8224369878
5	319790	34	992.77590189109
5	341956	35	978.67781211139
5	357174	36	964.87471636433
5	363090	37	952.79202458998
5	363091	38	945.20933281563
5	369007	39	941.68798945896
5	381249	40	936.61238933482
5	401496	41	929.99480163424
5	401497	42	921.58099675952
5	407060	43	911.63233928874
5	407061	44	900.20484265249
5	423319	45	886.2672825159
5	437808	46	873.10110731386
5	443007	47	859.14692392298
5	443008	48	845.48964061838
5	448199	49	832.43734497923
5	460080	50	818.66546757998
5	480342	51	805.28062925948
5	480343	52	791.79476924189
5	485513	53	778.64040761602
5	485514	54	764.70138070186
5	502335	55	753.20356083982
5	516999	56	745.8466235584
5	522176	57	741.88763579895
5	522177	58	735.94165016122
5	527357	59	728.36162356749
5	539017	60	719.46447546543
6	3	1	1024.7707513063
6	11403	2	1025.7678520608
6	17986	3	1027.3637122253
6	17987	4	1029.8591119849
6	42805	5	1033.3248381782
6	59237	6	1040.3197740835
6	65829	7	1045.2429615257
6	65830	8	1051.1075299469
6	72416	9	1057.0287872951
6	88547	10	1063.2403781734
6	111169	11	1068.987480984
6	111170	12	1074.9453511969
6	117764	13	1080.7129264611
6	117765	14	1086.6146480761
6	141885	15	1092.9076606418
6	158378	16	1098.9584609311
6	169634	17	1105.1622811683
6	169635	18	1111.3241649319
6	176221	19	1115.9783775224
6	193893	20	1118.9268965125
6	215748	21	1120.5433696533
6	215749	22	1122.9665689126
6	222357	23	1122.3684332122
6	222358	24	1120.1135649999
6	246612	25	1116.8760782212
6	262186	26	1112.5057544866
6	268828	27	1107.2403382217
6	268829	28	1101.3845828086
6	275089	29	1095.0831637303
6	291426	30	1089.1358984267
6	313509	31	1083.3051376459
6	313510	32	1077.5208144427
6	319789	33	1071.7870852866
6	319790	34	1065.5929439651
6	341956	35	1059.5750033865
6	357174	36	1053.7827806772
6	363090	37	1047.6808754486
6	363091	38	1041.8091826185
6	369007	39	1036.006545897
6	381249	40	1030.2468404758
6	401496	41	1023.5629857979
6	401497	42	1014.3410902633
6	407060	43	1004.9253046625
6	407061	44	995.53774667956
6	423319	45	985.86304409867
6	437808	46	976.66998983468
6	443007	47	967.20796608099
6	443008	48	957.9127502071
6	448199	49	950.17212812343
6	460080	50	944.81311390542
6	480342	51	937.69629552567
6	480343	52	928.34272407289
6	485513	53	916.17614240988
6	485514	54	902.40932197155
6	502335	55	888.58520457336
6	516999	56	874.519568336
6	522176	57	861.85511028132
6	522177	58	853.15933232839
6	527357	59	848.96355437545
6	539017	60	843.2969592578
7	3	1	1235.2715026126
7	11403	2	1237.2657041215
7	17986	3	1240.4574244505
7	17987	4	1245.4482239699
7	42805	5	1252.3796763565
7	59237	6	1259.219548167
7	65829	7	1269.0659230514
7	65830	8	1280.7950598938
7	72416	9	1292.6375745903
7	88547	10	1305.0607563467
7	111169	11	1316.5549619679
7	111170	12	1328.4707023938
7	117764	13	1340.0058529223
7	117765	14	1351.8092961523
7	141885	15	1364.3953212836
7	158378	16	1376.4969218623
7	169634	17	1388.9045623366
7	169635	18	1401.2283298638
7	176221	19	1410.5367550448
7	193893	20	1416.4337930251
7	215748	21	1419.3913809203
7	215749	22	1419.3779081166
7	222357	23	1416.1668664245
7	222358	24	1411.6571299998
7	246612	25	1405.1821564424
7	262186	26	1396.4415089733
7	268828	27	1385.9106764434
7	268829	28	1374.1991656172
7	275089	29	1361.5963274607
7	291426	30	1349.7017968535
7	313509	31	1338.0402752919
7	313510	32	1326.4716288854
7	319789	33	1315.0041705732
7	319790	34	1302.6158879302
7	341956	35	1290.5800067729
7	357174	36	1278.9955613543
7	363090	37	1266.7917508973
7	363091	38	1255.0483652369
7	369007	39	1243.4430917941
7	381249	40	1231.9236809515
7	401496	41	1220.324356961
7	401497	42	1211.7097745974
7	407060	43	1202.6553046625
7	407061	44	1193.2677466796
7	423319	45	1183.5930440987
7	437808	46	1174.3999898347
7	443007	47	1164.937966081
7	443008	48	1155.6427502071
7	448199	49	1147.9021281234
7	460080	50	1142.5431139054
7	480342	51	1135.8031367493
7	480343	52	1128.447567979
7	485513	53	1123.6721203135
7	485514	54	1120.2
7	502335	55	1120.2
7	516999	56	1120.2
7	522176	57	1120.2
7	522177	58	1120.2
7	527357	59	1120.2
7	539017	60	1119.6324817766
8	3	1	1326.2008037048
8	11403	2	1327.1845387438
8	17986	3	1328.9164468922
8	17987	4	1331.5091532017
8	42805	5	1337.96316324
8	59237	6	1342.2052950918
8	65829	7	1347.3872991885
8	65830	8	1352.3035337313
8	72416	9	1357.2699195552
8	88547	10	1362.6336674181
8	111169	11	1367.6880550162
8	111170	12	1372.7881882147
8	117764	13	1378.0712332975
8	117765	14	1383.0813641742
8	141885	15	1388.5641845667
8	158378	16	1393.8422966084
8	169634	17	1399.3271220588
8	169635	18	1404.7736168086
8	176221	19	1410.1396780956
8	193893	20	1413.8465898552
8	215748	21	1416.4302176255
8	215749	22	1418.0121815047
8	222357	23	1419.3528322224
8	222358	24	1418.4050869846
8	246612	25	1416.282345363
8	262186	26	1413.4755354544
8	268828	27	1409.5211473808
8	268829	28	1404.4890256717
8	275089	29	1399.125891442
8	291426	30	1393.8847971288
8	313509	31	1388.880418261
8	313510	32	1383.7640471067
8	319789	33	1378.553563449
8	319790	34	1373.0992218696
8	341956	35	1368.0995402548
8	357174	36	1363.1723742478
8	363090	37	1357.7055767772
8	363091	38	1352.7899077696
8	369007	39	1347.3458675316
8	381249	40	1342.1631690733
8	401496	41	1336.803878711
8	401497	42	1332.2492925556
8	407060	43	1329.526300482
8	407061	44	1323.8232550896
8	423319	45	1317.3718496983
8	437808	46	1308.8590446259
8	443007	47	1298.9039471178
8	443008	48	1287.0217559975
8	448199	49	1274.7989448565
8	460080	50	1262.6399675892
8	480342	51	1251.6177427199
8	480343	52	1242.117870927
8	485513	53	1237.1179991341
8	485514	54	1230.0403067682
8	502335	55	1221.1940531109
8	516999	56	1210.3531684668
8	522176	57	1199.1620862849
8	522177	58	1187.01514666
8	527357	59	1174.7993172499
8	539017	60	1162.9818003641
9	3	1	1138.1416074096
9	11403	2	1140.1090774876
9	17986	3	1143.5728937844
9	17987	4	1148.7583064034
9	42805	5	1154.4963264799
9	59237	6	1162.9805901836
9	65829	7	1173.344598377
9	65830	8	1183.1770674626
9	72416	9	1193.1098391103
9	88547	10	1203.8373348362
9	111169	11	1213.9461100323
9	111170	12	1224.1463764295
9	117764	13	1234.7124665949
9	117765	14	1244.7327283485
9	141885	15	1255.6983691333
9	158378	16	1266.2545932168
9	169634	17	1277.2242441177
9	169635	18	1288.1172336172
9	176221	19	1298.8493561913
9	193893	20	1306.2631797103
9	215748	21	1311.4304352511
9	215749	22	1312.49
9	222357	23	1311.1913884554
9	222358	24	1308.2301739692
9	246612	25	1303.9846907259
9	262186	26	1298.3710709089
9	268828	27	1290.4622947615
9	268829	28	1280.3980513434
9	275089	29	1269.671782884
9	291426	30	1259.1895942575
9	313509	31	1249.180836522
9	313510	32	1238.9480942133
9	319789	33	1228.5271268979
9	319790	34	1217.6184437391
9	341956	35	1207.6190805096
9	357174	36	1197.7647484956
9	363090	37	1186.8311535543
9	363091	38	1176.9998155392
9	369007	39	1166.1117350632
9	381249	40	1155.7463381466
9	401496	41	1145.0277574219
9	401497	42	1135.9185851112
9	407060	43	1130.5489016013
9	407061	44	1125.1536845818
9	423319	45	1123.6447314513
9	437808	46	1123.4
9	443007	47	1123.4
9	443008	48	1123.4
9	448199	49	1123.4
9	460080	50	1123.4
9	480342	51	1120.2
9	480343	52	1120.2
9	485513	53	1120.2
9	485514	54	1120.2
9	502335	55	1120.2
9	516999	56	1120.2
9	522176	57	1120.2
9	522177	58	1120.2
9	527357	59	1120.2
9	539017	60	1120.2
12	3	1	1833.0663038045
12	11403	2	1834.3984884987
12	17986	3	1837.5041668919
12	17987	4	1841.7973854519
12	42805	5	1847.1569853918
12	59237	6	1854.0876778302
12	65829	7	1862.7453463196
12	65830	8	1871.5613661823
12	72416	9	1880.3236246524
12	88547	10	1888.7883798018
12	111169	11	1897.6722090368
12	111170	12	1904.2151917783
12	117764	13	1908.0843748569
12	117765	14	1906.7626339435
12	141885	15	1901.7526356555
12	158378	16	1894.649169332
12	169634	17	1885.7829136824
12	169635	18	1874.388633886
12	176221	19	1861.4028498411
12	193893	20	1849.2963391822
12	215748	21	1837.0812725791
12	215749	22	1824.3231633234
12	222357	23	1811.3801173312
12	222358	24	1798.8339670922
12	246612	25	1786.4644387016
12	262186	26	1773.7279187027
12	268828	27	1761.4299318577
12	268829	28	1753.4164218038
12	275089	29	1749.6085190041
12	291426	30	1744.0993623641
12	313509	31	1737.0195504225
12	313510	32	1727.8565412513
12	319789	33	1717.6817347486
12	319790	34	1708.0655722675
12	341956	35	1699.3389868599
12	357174	36	1690.5322507872
12	363090	37	1681.8529443968
12	363091	38	1672.8672631997
12	369007	39	1663.9146829077
12	381249	40	1655.2720001723
12	401496	41	1648.146380917
12	401497	42	1644.1179160018
12	407060	43	1639.2080640481
12	407061	44	1633.2475789889
12	423319	45	1627.4988420081
12	437808	46	1626.6
12	443007	47	1626.6
12	443008	48	1626.6
12	448199	49	1626.6
12	460080	50	1626.6
12	480342	51	1626.6
12	480343	52	1626.6
12	485513	53	1626.389617372
12	485514	54	1624.6737230698
12	502335	55	1619.3022709896
12	516999	56	1613.6395133094
12	522176	57	1607.9320105165
12	522177	58	1602.4118555987
12	527357	59	1597.0882847845
12	539017	60	1591.7115250662
13	3	1	1239.8563038045
13	11403	2	1241.1884884987
13	17986	3	1244.2941668919
13	17987	4	1248.5873854519
13	42805	5	1253.9469853918
13	59237	6	1260.8776778302
13	65829	7	1269.5353463196
13	65830	8	1278.3513661823
13	72416	9	1287.1136246524
13	88547	10	1295.5783798018
13	111169	11	1304.4622090368
13	111170	12	1311.0051917783
13	117764	13	1315.4414321122
13	117765	14	1319.7486845716
13	141885	15	1320.2
13	158378	16	1320.2
13	169634	17	1320.2
13	169635	18	1320.2
13	176221	19	1320.2
13	193893	20	1320.2
13	215748	21	1320.2
13	215749	22	1320.2
13	222357	23	1320.2
13	222358	24	1320.2
13	246612	25	1320.2
13	262186	26	1320.2
13	268828	27	1320.2
13	268829	28	1320.2
13	275089	29	1320.2
13	291426	30	1319.9917928852
13	313509	31	1319.5283426633
13	313510	32	1317.6776829569
13	319789	33	1313.607041204
13	319790	34	1305.7955722675
13	341956	35	1297.0689868599
13	357174	36	1288.2622507872
13	363090	37	1279.5829443968
13	363091	38	1270.5972631997
13	369007	39	1261.6446829077
13	381249	40	1253.0020001723
13	401496	41	1245.876380917
13	401497	42	1241.8479160018
13	407060	43	1236.6975316757
13	407061	44	1229.6301039993
13	423319	45	1219.4874534189
13	437808	46	1206.6512229648
13	443007	47	1194.2680970445
13	443008	48	1181.3870023103
13	448199	49	1169.4130422032
13	460080	50	1157.5434698288
13	480342	51	1147.1132521946
13	480343	52	1139.8123769565
13	485513	53	1131.0470832442
13	485514	54	1120.6779687496
13	502335	55	1109.915697351
13	516999	56	1098.7090266189
13	522176	57	1087.294021033
13	522177	58	1076.2537111974
13	527357	59	1065.606569569
13	539017	60	1054.8530501325
14	3	1	1309.5
14	11403	2	1307.1343506024
14	17986	3	1302.2575001075
14	17987	4	1294.9810613067
14	42805	5	1285.6847107748
14	59237	6	1276.0292593736
14	65829	7	1266.547146678
14	65830	8	1256.2719402021
14	72416	9	1245.7667887601
14	88547	10	1239.0777555853
14	111169	11	1236.341682345
14	111170	12	1234.0262572331
14	117764	13	1234.9785759241
14	117765	14	1236.4895573319
14	141885	15	1239.4574006281
14	158378	16	1244.8442500668
14	169634	17	1252.2277718803
14	169635	18	1261.5299824396
14	176221	19	1271.8968649008
14	193893	20	1281.5311598098
14	215748	21	1291.3922124662
14	215749	22	1301.6071545219
14	222357	23	1309.0469677951
14	222358	24	1312.4573515608
14	246612	25	1317.5487728467
14	262186	26	1323.3268830226
14	268828	27	1326.1391566271
14	268829	28	1326.6
14	275089	29	1326.6
14	291426	30	1326.6
14	313509	31	1326.6
14	313510	32	1326.6
14	319789	33	1329.8
14	319790	34	1329.8
14	341956	35	1329.8
14	357174	36	1329.8
14	363090	37	1329.8
14	363091	38	1329.8
14	369007	39	1329.8
14	381249	40	1329.8
14	401496	41	1329.8
14	401497	42	1329.8
14	407060	43	1329.8
14	407061	44	1329.8
14	423319	45	1329.8
14	437808	46	1329.8
14	443007	47	1330.6339356075
14	443008	48	1334.3085995912
14	448199	49	1338.2799567913
14	460080	50	1343.892262512
14	480342	51	1350.8264513698
14	480343	52	1359.1072421652
14	485513	53	1368.5799415194
14	485514	54	1379.0698818013
14	502335	55	1389.0451152888
14	516999	56	1399.4315764393
14	522176	57	1409.5278454267
14	522177	58	1419.6727771491
14	527357	59	1429.7036142495
14	539017	60	1439.3839903509
15	3	1	1120.2
15	11403	2	1120.2
15	17986	3	1123.4
15	17987	4	1123.4
15	42805	5	1123.4
15	59237	6	1123.4
15	65829	7	1123.4
15	65830	8	1123.4
15	72416	9	1123.4
15	88547	10	1123.4
15	111169	11	1123.4
15	111170	12	1124.5474855337
15	117764	13	1126.319050616
15	117765	14	1126.6
15	141885	15	1126.6
15	158378	16	1126.6
15	169634	17	1126.6
15	169635	18	1126.6
15	176221	19	1126.6
15	193893	20	1126.6
15	215748	21	1126.6
15	215749	22	1126.6
15	222357	23	1126.6
15	222358	24	1126.6
15	246612	25	1126.1787467362
15	262186	26	1123.7638701864
15	268828	27	1117.8259036105
15	268829	28	1111.431257229
15	275089	29	1102.9098267405
15	291426	30	1092.4409843937
15	313509	31	1081.9054392436
15	313510	32	1071.9802406703
15	319789	33	1061.5600862482
15	319790	34	1051.1946835696
15	341956	35	1041.0493789163
15	357174	36	1030.4351346138
15	363090	37	1020.0579583053
15	363091	38	1010.7294020077
15	369007	39	1000.785653552
15	381249	40	990.47530191015
15	401496	41	979.86897299778
15	401497	42	969.53359606581
15	407060	43	960.17569713491
15	407061	44	949.87385724175
15	423319	45	940.96453906913
15	437808	46	936.04768014187
15	443007	47	932.14344065408
15	443008	48	929.95591434412
15	448199	49	929.8
15	460080	50	929.8
15	480342	51	929.8
15	480343	52	929.8
15	485513	53	929.8
15	485514	54	929.8
15	502335	55	929.8
15	516999	56	929.8
15	522176	57	929.8
15	522177	58	929.8
15	527357	59	929.8
15	539017	60	929.8
16	3	1	1340.5
16	11403	2	1342.776936835
16	17986	3	1346.7572863228
16	17987	4	1352.4675703281
16	42805	5	1359.5809556452
16	59237	6	1369.2442107788
16	65829	7	1381.2529729012
16	65830	8	1394.847604426
16	72416	9	1408.9386651832
16	88547	10	1423.4595992986
16	111169	11	1437.5576284588
16	111170	12	1451.3763169695
16	117764	13	1465.4356742579
16	117765	14	1480.0590651545
16	141885	15	1494.5685220704
16	158378	16	1505.202552967
16	169634	17	1512.3793640888
16	169635	18	1515.8447362421
16	176221	19	1514.341188537
16	193893	20	1508.6749085996
16	215748	21	1500.5888259262
16	215749	22	1490.4173948611
16	222357	23	1478.2890146642
16	222358	24	1464.0579871917
16	246612	25	1449.9026747268
16	262186	26	1436.2162811871
16	268828	27	1422.8331074889
16	268829	28	1409.1036714726
16	275089	29	1394.6382751614
16	291426	30	1381.1642354223
16	313509	31	1366.6995954953
16	313510	32	1353.2419152807
16	319789	33	1344.2842350661
16	319790	34	1338.8048066523
16	341956	35	1331.4834938132
16	357174	36	1324.52971305
16	363090	37	1323.4
16	363091	38	1323.4
16	369007	39	1323.4
16	381249	40	1320.2
16	401496	41	1320.2
16	401497	42	1320.2
16	407060	43	1320.2
16	407061	44	1320.2
16	423319	45	1320.2
16	437808	46	1320.2
16	443007	47	1320.2
16	443008	48	1320.2
16	448199	49	1320.2
16	460080	50	1320.2
16	480342	51	1319.9838517298
16	480343	52	1317.3168903453
16	485513	53	1310.9005477185
16	485514	54	1302.7603233448
16	502335	55	1292.1984710918
16	516999	56	1279.5213036385
16	522176	57	1265.7586514958
16	522177	58	1252.9479799241
16	527357	59	1243.5583092206
16	539017	60	1238.6686385171
17	3	1	929.8
17	11403	2	929.8
17	17986	3	929.8
17	17987	4	929.8
17	42805	5	926.6
17	59237	6	926.6
17	65829	7	926.6
17	65830	8	926.6
17	72416	9	926.6
17	88547	10	926.6
17	111169	11	926.6
17	111170	12	926.6
17	117764	13	926.6
17	117765	14	926.6
17	141885	15	926.6
17	158378	16	926.6
17	169634	17	926.6
17	169635	18	925.7105275158
17	176221	19	923.4
17	193893	20	923.4
17	215748	21	923.4
17	215749	22	923.4
17	222357	23	923.4
17	222358	24	923.4
17	246612	25	923.4
17	262186	26	923.4
17	268828	27	923.4
17	268829	28	923.4
17	275089	29	923.4
17	291426	30	923.4
17	313509	31	923.4
17	313510	32	923.4
17	319789	33	923.4
17	319790	34	923.4
17	341956	35	923.95950088383
17	357174	36	929.5171449167
17	363090	37	937.83398913148
17	363091	38	948.41901660017
17	369007	39	961.56943239434
17	381249	40	975.56848753736
17	401496	41	989.80145885401
17	401497	42	1004.4428253078
17	407060	43	1017.8835811853
17	407061	44	1031.9121513762
17	423319	45	1045.5045456676
17	437808	46	1059.1416682873
17	443007	47	1072.5403011606
17	443008	48	1086.6670772925
17	448199	49	1100.6783786035
17	460080	50	1110.2046075591
17	480342	51	1116.1130378916
17	480343	52	1119.6898657928
17	485513	53	1123.4
17	485514	54	1123.4
17	502335	55	1123.4
17	516999	56	1123.4
17	522176	57	1123.4
17	522177	58	1123.4
17	527357	59	1123.4
17	539017	60	1123.4
18	3	1	1129.8
18	11403	2	1129.8
18	17986	3	1129.8
18	17987	4	1129.8
18	42805	5	1129.8
18	59237	6	1129.8
18	65829	7	1129.8
18	65830	8	1129.8
18	72416	9	1129.8
18	88547	10	1129.8
18	111169	11	1129.8
18	111170	12	1129.8
18	117764	13	1129.8
18	117765	14	1129.8
18	141885	15	1129.8
18	158378	16	1129.8
18	169634	17	1129.8
18	169635	18	1129.8
18	176221	19	1129.8
18	193893	20	1129.8
18	215748	21	1129.8
18	215749	22	1129.8
18	222357	23	1129.8
18	222358	24	1129.8
18	246612	25	1129.8
18	262186	26	1129.8
18	268828	27	1129.8
18	268829	28	1129.8
18	275089	29	1129.8
18	291426	30	1129.8
18	313509	31	1129.8
18	313510	32	1129.8
18	319789	33	1129.8
18	319790	34	1129.8
18	341956	35	1129.8
18	357174	36	1129.8
18	363090	37	1129.8
18	363091	38	1129.8
18	369007	39	1129.8
18	381249	40	1129.8
18	401496	41	1129.8
18	401497	42	1129.8
18	407060	43	1129.8
18	407061	44	1126.6
18	423319	45	1126.6
18	437808	46	1126.6
18	443007	47	1126.6
18	443008	48	1126.6
18	448199	49	1126.6
18	460080	50	1126.6
18	480342	51	1126.6
18	480343	52	1124.8239446993
18	485513	53	1114.5257910241
18	485514	54	1100.1169690041
18	502335	55	1084.8780329018
18	516999	56	1069.5819632333
18	522176	57	1054.8546487027
18	522177	58	1039.8784962443
18	527357	59	1024.983134871
18	539017	60	1009.4107847127
19	3	1	1109.5
19	11403	2	1107.9406881263
19	17986	3	1103.8766095484
19	17987	4	1097.8498983759
19	42805	5	1089.9281731428
19	59237	6	1080.5174401969
19	65829	7	1069.5878612613
19	65830	8	1057.0569422955
19	72416	9	1042.7985469433
19	88547	10	1027.0340669553
19	111169	11	1009.9750294006
19	111170	12	992.45724353594
19	117764	13	975.75099830571
19	117765	14	958.70309104475
19	141885	15	941.45445067548
19	158378	16	923.97179117512
19	169634	17	906.59573209449
19	169635	18	889.1804045701
19	176221	19	872.31748538879
19	193893	20	859.95456620748
19	215748	21	852.09164702617
19	215749	22	847.96352792533
19	222357	23	841.7584842649
19	222358	24	832.99732172821
19	246612	25	822.34115042022
19	262186	26	809.72081887321
19	268828	27	794.67479109009
19	268829	28	777.28653684603
19	275089	29	760.86105131733
19	291426	30	743.3825253015
19	313509	31	726.69809752599
19	313510	32	710.37274923848
19	319789	33	693.44109530582
19	319790	34	676.96367946971
19	341956	35	660.69491893149
19	357174	36	648.92615839326
19	363090	37	641.1355426139
19	363091	38	636.70875339348
19	369007	39	630.3883659936
19	381249	40	622.47502528908
19	401496	41	612.20471414057
19	401497	42	599.51397418932
19	407060	43	584.55847520272
19	407061	44	567.43385675121
19	423319	45	550.67806265616
19	437808	46	533.31893693967
19	443007	47	516.72507077579
19	443008	48	500.13184447254
19	448199	49	483.64677648638
19	460080	50	466.08330908533
19	480342	51	448.47396034957
19	480343	52	431.40361986195
19	485513	53	418.72881575304
19	485514	54	410.76848450205
19	502335	55	403.14901645091
19	516999	56	395.50098161667
19	522176	57	388.13732435137
19	522177	58	380.64924812214
19	527357	59	373.20156743549
19	539017	60	365.41539235633
20	3	1	940.96622548007
20	11403	2	942.4604033847
20	17986	3	947.88442969744
20	17987	4	952.78116184148
20	42805	5	959.05963010955
20	59237	6	967.08196352667
20	65829	7	976.80600789193
20	65830	8	987.7020574324
20	72416	9	996.94113643104
20	88547	10	1004.0478452597
20	111169	11	1008.0685858788
20	111170	12	1010.6545989064
20	117764	13	1008.8628597902
20	117765	14	1004.9034900804
20	141885	15	999.91329278047
20	158378	16	993.30942512806
20	169634	17	985.03424328852
20	169635	18	975.75560298654
20	176221	19	965.48472491604
20	193893	20	955.1775490884
20	215748	21	948.05233691965
20	215749	22	943.74466907572
20	222357	23	938.0413915987
20	222358	24	930.5888640153
20	246612	25	920.05729955945
20	262186	26	905.83237295428
20	268828	27	890.29748663242
20	268829	28	875.4075816918
20	275089	29	862.25246048223
20	291426	30	853.4967527763
20	313509	31	849.09346092569
20	313510	32	843.34965418153
20	319789	33	835.99547207141
20	319790	34	826.57785577755
20	341956	35	814.88125884429
20	357174	36	801.51456411273
20	363090	37	785.92552253179
20	363091	38	771.2502146098
20	369007	39	755.6436483043
20	381249	40	741.30185552895
20	401496	41	726.8704840048
20	401497	42	713.57388315739
20	407060	43	703.09402417004
20	407061	44	692.88013859791
20	423319	45	682.3187388936
20	437808	46	671.39702262107
20	443007	47	660.44012904642
20	443008	48	650.58089208231
20	448199	49	643.86890186811
20	460080	50	639.60947521281
20	480342	51	635.00442364411
20	480343	52	630.25074866659
20	485513	53	629.8
20	485514	54	629.8
20	502335	55	629.8
20	516999	56	629.8
20	522176	57	626.6
20	522177	58	626.6
20	527357	59	626.6
20	539017	60	626.6
21	3	1	1147.7562254801
21	11403	2	1149.2504033847
21	17986	3	1150.1544296974
21	17987	4	1155.0511618415
21	42805	5	1161.3296301096
21	59237	6	1169.3519635267
21	65829	7	1179.0760078919
21	65830	8	1189.9720574324
21	72416	9	1199.211136431
21	88547	10	1206.3178452597
21	111169	11	1210.3385858788
21	111170	12	1209.5026087394
21	117764	13	1206.5928597902
21	117765	14	1202.6334900804
21	141885	15	1197.6432927805
21	158378	16	1191.0394251281
21	169634	17	1182.7642432885
21	169635	18	1173.4856029865
21	176221	19	1163.214724916
21	193893	20	1152.9075490884
21	215748	21	1145.7823369196
21	215749	22	1141.4746690757
21	222357	23	1136.1172229056
21	222358	24	1130.0402853927
21	246612	25	1124.3422004368
21	262186	26	1123.4
21	268828	27	1123.4
21	268829	28	1123.4
21	275089	29	1123.4
21	291426	30	1123.4
21	313509	31	1123.4
21	313510	32	1123.4
21	319789	33	1123.4
21	319790	34	1123.4
21	341956	35	1123.4
21	357174	36	1123.4
21	363090	37	1120.2
21	363091	38	1120.2
21	369007	39	1120.2
21	381249	40	1120.4943580536
21	401496	41	1122.39733523
21	401497	42	1129.6361168426
21	407060	43	1140.11597583
21	407061	44	1150.3298614021
21	423319	45	1160.8912611064
21	437808	46	1171.8129773789
21	443007	47	1182.7698709536
21	443008	48	1192.6291079177
21	448199	49	1199.3410981319
21	460080	50	1203.6005247872
21	480342	51	1207.7287678488
21	480343	52	1206.757557205
21	485513	53	1200.1606029248
21	485514	54	1191.2275759112
21	502335	55	1180.2690366888
21	516999	56	1167.6025861776
21	522176	57	1152.5753293595
21	522177	58	1137.354869055
21	527357	59	1123.0008081025
21	539017	60	1108.0293386624
22	3	1	1229.8
22	11403	2	1229.8
22	17986	3	1229.8
22	17987	4	1229.8
22	42805	5	1226.6
22	59237	6	1226.6
22	65829	7	1226.6
22	65830	8	1226.6
22	72416	9	1226.6
22	88547	10	1226.6
22	111169	11	1226.6
22	111170	12	1226.6
22	117764	13	1226.6
22	117765	14	1226.6
22	141885	15	1226.6
22	158378	16	1226.6
22	169634	17	1226.6
22	169635	18	1226.6
22	176221	19	1226.1828073073
22	193893	20	1222.4354013655
22	215748	21	1216.665154998
22	215749	22	1208.4937443795
22	222357	23	1198.3342916409
22	222358	24	1186.6374437393
22	246612	25	1174.7645396109
22	262186	26	1161.9250163278
22	268828	27	1149.308995683
22	268829	28	1136.6660811819
22	275089	29	1124.0859915618
22	291426	30	1111.4815085363
22	313509	31	1098.8414085554
22	313510	32	1085.9944659464
22	319789	33	1073.8925725226
22	319790	34	1061.9759376306
22	341956	35	1049.5601026098
22	357174	36	1037.6029456007
22	363090	37	1025.3241937719
22	363091	38	1012.5334328855
22	369007	39	999.67822216086
22	381249	40	986.63431415036
22	401496	41	973.56108076476
22	401497	42	960.91478398992
22	407060	43	947.92729866914
22	407061	44	936.08039713226
22	423319	45	923.83128060454
22	437808	46	910.81174104593
22	443007	47	898.51769001052
22	443008	48	886.55833850817
22	448199	49	874.48845861723
22	460080	50	861.90768758916
22	480342	51	853.28886256337
22	480343	52	849.17003753758
22	485513	53	842.77274576404
22	485514	54	833.92053805512
22	502335	55	823.29454253007
22	516999	56	810.55414439403
22	522176	57	798.35990932483
22	522177	58	786.39943232022
22	527357	59	774.05467659163
22	539017	60	761.64533656285
23	3	1	1309.5
23	11403	2	1308.135928605
23	17986	3	1305.1854555067
23	17987	4	1300.4108876183
23	42805	5	1293.6159023147
23	59237	6	1285.0127035205
23	65829	7	1273.9829129846
23	65830	8	1261.1682404937
23	72416	9	1248.4660822636
23	88547	10	1236.4555220093
23	111169	11	1224.1940002901
23	111170	12	1211.7700721671
23	117764	13	1198.680351134
23	117765	14	1186.3261892823
23	141885	15	1174.1526230705
23	158378	16	1161.3509776422
23	169634	17	1148.7369736681
23	169635	18	1138.3465605029
23	176221	19	1132.4855271048
23	193893	20	1125.7012408193
23	215748	21	1123.6950221426
23	215749	22	1123.4
23	222357	23	1123.4
23	222358	24	1123.4
23	246612	25	1123.4
23	262186	26	1123.4
23	268828	27	1120.2
23	268829	28	1120.2
23	275089	29	1120.2
23	291426	30	1120.2
23	313509	31	1120.2
23	313510	32	1120.2
23	319789	33	1120.2
23	319790	34	1120.2
23	341956	35	1120.2
23	357174	36	1120.2
23	363090	37	1120.2
23	363091	38	1120.2
23	369007	39	1120.2
23	381249	40	1120.2
23	401496	41	1120.2
23	401497	42	1120.2
23	407060	43	1120.2
23	407061	44	1120.2
23	423319	45	1120.2
23	437808	46	1120.2
23	443007	47	1120.2
23	443008	48	1120.2
23	448199	49	1120.2
23	460080	50	1120.2
23	480342	51	1120.2
23	480343	52	1120.2
23	485513	53	1120.2
23	485514	54	1120.2
23	502335	55	1120.2
23	516999	56	1120.2
23	522176	57	1120.2
23	522177	58	1120.2
23	527357	59	1120.2
23	539017	60	1120.2
24	3	1	945.65148398689
24	11403	2	946.82699185516
24	17986	3	949.97386812518
24	17987	4	954.80723401841
24	42805	5	961.1853119641
24	59237	6	969.56160477551
24	65829	7	979.77485186368
24	65830	8	991.2622915049
24	72416	9	1001.7265708548
24	88547	10	1012.7870789377
24	111169	11	1023.3009044402
24	111170	12	1034.3284624853
24	117764	13	1045.8493510742
24	117765	14	1057.2367552716
24	141885	15	1068.6792423856
24	158378	16	1080.1899970813
24	169634	17	1091.0378158209
24	169635	18	1101.2089991048
24	176221	19	1107.3553435767
24	193893	20	1112.7104510604
24	215748	21	1118.4317351528
24	215749	22	1120.2
24	222357	23	1120.2
24	222358	24	1120.2
24	246612	25	1120.2
24	262186	26	1120.2
24	268828	27	1120.2
24	268829	28	1120.2
24	275089	29	1120.2
24	291426	30	1120.2
24	313509	31	1120.2
24	313510	32	1120.2
24	319789	33	1120.2
24	319790	34	1120.2
24	341956	35	1120.2
24	357174	36	1120.2
24	363090	37	1120.2
24	363091	38	1120.2
24	369007	39	1120.2
24	381249	40	1120.2
24	401496	41	1120.2
24	401497	42	1120.2
24	407060	43	1120.2
24	407061	44	1120.2
24	423319	45	1120.2
24	437808	46	1120.2
24	443007	47	1114.5237456133
24	443008	48	1106.4307544344
24	448199	49	1097.530292382
24	460080	50	1088.5655495714
24	480342	51	1079.7939111241
24	480343	52	1070.750982299
24	485513	53	1061.8707364931
24	485514	54	1053.5252985688
24	502335	55	1044.9508756748
24	516999	56	1036.228956103
24	522176	57	1027.4845224944
24	522177	58	1020.2386656836
24	527357	59	1014.2563197739
24	539017	60	1008.8773735435
25	3	1	520.03925800655
25	11403	2	519.45150407242
25	17986	3	517.87806593741
25	17987	4	515.4613829908
25	42805	5	512.27234401795
25	59237	6	508.08419761225
25	65829	7	502.97757406816
25	65830	8	497.23385424755
25	72416	9	492.0017145726
25	88547	10	486.47146053117
25	111169	11	481.21454777991
25	111170	12	475.70076875733
25	117764	13	469.94032446289
25	117765	14	464.24662236422
25	141885	15	458.52537880721
25	158378	16	452.77000145933
25	169634	17	447.34609208957
25	169635	18	442.26050044762
25	176221	19	439.18732821165
25	193893	20	436.77977933543
25	215748	21	436.53656077417
25	215749	22	442.11673626541
25	222357	23	450.3149737573
25	222358	24	459.95443946447
25	246612	25	471.54902672333
25	262186	26	483.24186732179
25	268828	27	494.93137513951
25	268829	28	507.17644098435
25	275089	29	519.8520564883
25	291426	30	531.68483986921
25	313509	31	543.56831718546
25	313510	32	555.99634530082
25	319789	33	567.77287349927
25	319790	34	580.50543342278
25	341956	35	593.05180374172
25	357174	36	604.01081233961
25	363090	37	610.60673090111
25	363091	38	619.60989527388
25	369007	39	630.57007750386
25	381249	40	643.3462415464
25	401496	41	655.77609208041
25	401497	42	668.18120358707
25	407060	43	680.72685996873
25	407061	44	692.75311064843
25	423319	45	705.3974142535
25	437808	46	718.02086106001
25	443007	47	728.35535362561
25	443008	48	736.77924556557
25	448199	49	745.67970761803
25	460080	50	754.64445042863
25	480342	51	763.41608887592
25	480343	52	772.45901770099
25	485513	53	781.33926350687
25	485514	54	789.68470143124
25	502335	55	798.25912432515
25	516999	56	806.91461210183
25	522176	57	815.10437196952
25	522177	58	824.44269092278
25	527357	59	835.75736045217
25	539017	60	846.515252913
28	3	1	841.65615749448
28	11403	2	842.64520229661
28	17986	3	844.73306320875
28	17987	4	848.51424009412
28	42805	5	853.54792241311
28	59237	6	859.62315522545
28	65829	7	866.63675948517
28	65830	8	875.41143851719
28	72416	9	885.23746896393
28	88547	10	894.90197615266
28	111169	11	904.45146654205
28	111170	12	913.80534250263
28	117764	13	919.97731479162
28	117765	14	923.2501334845
28	141885	15	929.23227910397
28	158378	16	938.38054941032
28	169634	17	949.91652475296
28	169635	18	963.51806992711
28	176221	19	977.77913470957
28	193893	20	991.30232833942
28	215748	21	1005.4882333695
28	215749	22	1019.5488647872
28	222357	23	1032.9728863695
28	222358	24	1046.1560809958
28	246612	25	1060.4227810778
28	262186	26	1074.8120851972
28	268828	27	1088.6445981013
28	268829	28	1100.7712104511
28	275089	29	1108.6740265741
28	291426	30	1112.8576648378
28	313509	31	1118.9479464561
28	313510	32	1123.4
28	319789	33	1123.4
28	319790	34	1123.4
28	341956	35	1123.4
28	357174	36	1123.4
28	363090	37	1123.4
28	363091	38	1123.4
28	369007	39	1123.4
28	381249	40	1123.4
28	401496	41	1123.4
28	401497	42	1123.4
28	407060	43	1123.4
28	407061	44	1123.4
28	423319	45	1123.4
28	437808	46	1123.4
28	443007	47	1124.5100746303
28	443008	48	1129.6993455715
28	448199	49	1138.2062082983
28	460080	50	1147.7155851179
28	480342	51	1157.2984145255
28	480343	52	1166.8157647831
28	485513	53	1176.5791877123
28	485514	54	1186.0306829632
28	502335	55	1195.8199588426
28	516999	56	1205.9965092064
28	522176	57	1216.0697789413
28	522177	58	1221.8200694017
28	527357	59	1223.2683162745
28	539017	60	1223.4
29	3	1	715.13384250552
29	11403	2	714.14479770339
29	17986	3	712.05693679125
29	17987	4	708.27575990588
29	42805	5	703.24207758689
29	59237	6	697.16684477455
29	65829	7	690.15324051483
29	65830	8	681.37856148281
29	72416	9	671.55253103607
29	88547	10	661.88802384734
29	111169	11	652.33853345795
29	111170	12	642.98465749737
29	117764	13	636.81268520838
29	117765	14	633.5398665155
29	141885	15	630.30442865198
29	158378	16	629.8
29	169634	17	629.8
29	169635	18	629.8
29	176221	19	629.8
29	193893	20	629.8
29	215748	21	629.8
29	215749	22	629.8
29	222357	23	629.8
29	222358	24	629.8
29	246612	25	629.8
29	262186	26	629.8
29	268828	27	629.8
29	268829	28	629.8
29	275089	29	629.8
29	291426	30	629.8
29	313509	31	631.44657742691
29	313510	32	637.8542113399
29	319789	33	646.23400159596
29	319790	34	656.82512256237
29	341956	35	669.87556826385
29	357174	36	683.25957673252
29	363090	37	696.4208987455
29	363091	38	710.31932221897
29	369007	39	724.10953692043
29	381249	40	737.80152250375
29	401496	41	751.78567103383
29	401497	42	765.72932861566
29	407060	43	780.02761812008
29	407061	44	794.04067853978
29	423319	45	804.4409355587
29	437808	46	811.56282540497
29	443007	47	820.66327380224
29	443008	48	830.10805144693
29	448199	49	840.33662378618
29	460080	50	849.98558511789
29	480342	51	859.56841452553
29	480343	52	869.08576478305
29	485513	53	878.84918771235
29	485514	54	888.30068296316
29	502335	55	898.08995884261
29	516999	56	908.26650920641
29	522176	57	918.33977894132
29	522177	58	930.22299068988
29	527357	59	944.25127431376
29	539017	60	958.19244932444
30	3	1	1120.2
30	11403	2	1120.2
30	17986	3	1120.2
30	17987	4	1120.2
30	42805	5	1120.2
30	59237	6	1120.2
30	65829	7	1120.2
30	65830	8	1120.2
30	72416	9	1120.2
30	88547	10	1120.2
30	111169	11	1114.7285635402
30	111170	12	1105.0117596551
30	117764	13	1094.9919180484
30	117765	14	1084.8187430175
30	141885	15	1075.3952180188
[...]
152	363090	37	0.973
152	363091	38	6.6449172445183
152	369007	39	8.7521943844152
152	381249	40	0.973
152	401496	41	0.973
152	401497	42	4.6569625365963
152	407060	43	4.2183277810105
152	407061	44	5.4795880867973
152	423319	45	6.3129837225965
152	437808	46	5.5963600562065
152	443007	47	1.5634371836508
152	443008	48	3.8515344820218
152	448199	49	0.973
152	460080	50	0.973
152	480342	51	0.973
152	480343	52	3.2940263191399
152	485513	53	6.7045546744262
152	485514	54	7.3583403820791
152	502335	55	7.6375513698696
152	516999	56	2.9597773233528
152	522176	57	0.973
152	522177	58	2.2320766457344
152	527357	59	3.1775815926236
152	539017	60	1.5399076402674
153	17986	3	2.1991455138661
153	17987	4	2.2990668435348
153	42805	5	2.2393480736064
153	59237	6	1.652940650261
153	65829	7	2.4860693038907
153	65830	8	0.5059915676813
153	72416	9	-0.14979291264899
153	88547	10	-0.30594346907456
153	111169	11	0.16564838576596
153	111170	12	0.88606099262834
153	117764	13	-0.93583106496371
153	117765	14	0.072389675839805
153	141885	15	0.57738789715804
153	158378	16	-3.5794785812426
153	169634	17	-4.4731108352775
153	169635	18	-2.7397466493776
153	176221	19	-0.39635195345618
153	193893	20	-0.026940466836095
153	215748	21	1.3958321520127
153	215749	22	2.053735314752
153	222357	23	2.4632722997339
153	222358	24	1.9689447691198
153	246612	25	2.3065734611824
153	262186	26	1.4828344086818
153	268828	27	-1.1486279197736
153	268829	28	0.53165988763794
153	275089	29	-0.44045267051552
153	291426	30	-0.15031289027538
153	313509	31	1.1036924114218
153	313510	32	-0.98537737547886
153	319789	33	-0.050587036390789
153	319790	34	-1.5907985833852
153	341956	35	-4.0044598053209
153	357174	36	-3.942839884942
153	363090	37	1.8360343949171
153	363091	38	1.7779657803709
153	369007	39	1.3389077105327
153	381249	40	2.1887224991107
153	401496	41	1.4285105444258
153	401497	42	1.8881319251267
153	407060	43	0.1214581348002
153	407061	44	-0.47201997973025
153	423319	45	-0.5780387526378
153	437808	46	0.4729332776973
153	443007	47	-0.42867033181246
153	443008	48	-0.093203285313212
153	448199	49	0.85672628106549
153	460080	50	-0.77192433227319
153	480342	51	1.100871789176
153	480343	52	-4.5
153	485513	53	-4.5
153	485514	54	1.9228609754937
153	502335	55	0.494686609939
153	516999	56	0.95175525457598
153	522176	57	-0.90660404204391
153	522177	58	1.5283418053528
153	527357	59	2.3729150066851
153	539017	60	1.9982373089064
154	17986	3	3.5475697126176
154	17987	4	5.0521007687714
154	42805	5	6.3113931186882
154	59237	6	5.856171455013
154	65829	7	9.6464389665287
154	65830	8	3.6098995839111
154	72416	9	1.4849741751623
154	88547	10	0.973
154	111169	11	2.472181860804
154	111170	12	5.023064935309
154	117764	13	0.973
154	117765	14	2.1803850873742
154	141885	15	3.9140725458379
154	158378	16	0.973
154	169634	17	0.973
154	169635	18	0.973
154	176221	19	0.973
154	193893	20	1.215002507891
154	215748	21	2.6066985486474
154	215749	22	4.3509062616072
154	222357	23	6.5527955745954
154	222358	24	6.6302175076992
154	246612	25	8.9519742386915
154	262186	26	7.1121936845266
154	268828	27	0.973
154	268829	28	3.7263650837687
154	275089	29	0.973
154	291426	30	1.4659108773304
154	313509	31	5.7806016771577
154	313510	32	0.973
154	319789	33	1.7826295067059
154	319790	34	0.973
154	341956	35	0.973
154	357174	36	0.973
154	363090	37	3.7298285605978
154	363091	38	4.5221872767688
154	369007	39	4.2911461631405
154	381249	40	7.3324507289039
154	401496	41	5.9990604607254
154	401497	42	8.3719198402187
154	407060	43	2.4558041436845
154	407061	44	0.973
154	423319	45	0.973
154	437808	46	3.5223404791254
154	443007	47	0.973
154	443008	48	1.6448247616979
154	448199	49	4.8714589710979
154	460080	50	0.973
154	480342	51	5.8050901212548
154	480343	52	0.973
154	485513	53	0.973
154	485514	54	4.7567167066754
154	502335	55	2.4156197961918
154	516999	56	3.5294725743584
154	522176	57	0.973
154	522177	58	4.9844349008815
154	527357	59	8.3849637967162
154	539017	60	8.4915726176819
155	17986	3	2.1495511898538
155	17987	4	1.6077916391194
155	42805	5	2.1667176323012
155	59237	6	1.6553734902991
155	65829	7	1.407928625471
155	65830	8	2.3162660283735
155	72416	9	1.0633030994074
155	88547	10	-0.30387412603013
155	111169	11	-0.082358319428749
155	111170	12	-0.37093756143004
155	117764	13	0.98370102224872
155	117765	14	-0.45582728949375
155	141885	15	0.23270541736856
155	158378	16	0.35159251396544
155	169634	17	-1.5340500652689
155	169635	18	-4.1879171761633
155	176221	19	-4.4864677698817
155	193893	20	-2.898582424811
155	215748	21	-0.73803311839536
155	215749	22	-0.33467787518628
155	222357	23	-0.0024682852114383
155	222358	24	-0.014670834639251
155	246612	25	-0.0021778326244909
155	262186	26	0
155	268828	27	0
155	268829	28	0
155	275089	29	0
155	291426	30	0
155	313509	31	0
155	313510	32	0
155	319789	33	0
155	319790	34	0
155	341956	35	0
155	357174	36	0
155	363090	37	0
155	363091	38	0
155	369007	39	0
155	381249	40	0
155	401496	41	0
155	401497	42	0
155	407060	43	0
155	407061	44	0
155	423319	45	0
155	437808	46	0.90006742702053
155	443007	47	1.9859071387677
155	443008	48	2.134842311847
155	448199	49	2.5463456669822
155	460080	50	1.3706118613016
155	480342	51	1.6346639127936
155	480343	52	1.4877580618253
155	485513	53	1.1566306826059
155	485514	54	-0.12607851950452
155	502335	55	1.2579509564443
155	516999	56	-0.66146193363238
155	522176	57	-0.55032098006923
155	522177	58	0.042661329149269
155	527357	59	0.32673640006687
155	539017	60	-0.094957760814577
156	17986	3	3.1681200099253
156	17987	4	3.4039941937015
156	42805	5	5.3692209667413
156	59237	6	5.228573154657
156	65829	7	5.2713738035056
156	65830	8	9.0538687775767
156	72416	9	5.5705668982874
156	88547	10	0.973
156	111169	11	1.7172518653476
156	111170	12	0.973
156	117764	13	5.3818436037337
156	117765	14	0.973
156	141885	15	2.7998854879529
156	158378	16	3.2625549584886
156	169634	17	0.973
156	169635	18	0.973
156	176221	19	0.973
156	193893	20	0.973
156	215748	21	0.973
156	215749	22	0.973
156	222357	23	1.1108027576074
156	222358	24	1.1100973585468
156	246612	25	0.973
156	262186	26	0.973
156	268828	27	0.973
156	268829	28	0.973
156	275089	29	0.973
156	291426	30	0.973
156	313509	31	0.973
156	313510	32	0.973
156	319789	33	0.973
156	319790	34	0.973
156	341956	35	0.973
156	357174	36	0.973
156	363090	37	0.973
156	363091	38	0.973
156	369007	39	0.973
156	381249	40	0.973
156	401496	41	0.973
156	401497	42	0.973
156	407060	43	0.973
156	407061	44	0.973
156	423319	45	0.973
156	437808	46	1.3487258629574
156	443007	47	2.6326777857451
156	443008	48	3.9470916022829
156	448199	49	6.1588040427716
156	460080	50	4.5594181590335
156	480342	51	5.8942375300247
156	480343	52	6.1780086552044
156	485513	53	5.645025829347
156	485514	54	1.5509727660975
156	502335	55	6.4251259457424
156	516999	56	0.973
156	522176	57	0.973
156	522177	58	2.092770937003
156	527357	59	3.052684451827
156	539017	60	1.6728861588014
157	17986	3	1.7205195409479
157	17987	4	2.2800610841252
157	42805	5	2.5634366825223
157	59237	6	1.5375947437016
157	65829	7	1.6950911654159
157	65830	8	2.4552493747557
157	72416	9	-0.30452627644846
157	88547	10	-0.14255712202285
157	111169	11	0.028056139871479
157	111170	12	0.42648800171446
157	117764	13	-0.0071326279547073
157	117765	14	-0.5198701916961
157	141885	15	-0.24250904596411
157	158378	16	-3.5109438656137
157	169634	17	-4.4693495155778
157	169635	18	-2.9490475568222
157	176221	19	2.5404571905732
157	193893	20	1.1737574870881
157	215748	21	1.4985727415653
157	215749	22	2.049248764175
157	222357	23	1.7893671946833
157	222358	24	1.7603376503801
157	246612	25	0.74723981193363
157	262186	26	-1.5187547579081
157	268828	27	-4.0334999273764
157	268829	28	-4.5
157	275089	29	1.0008968362129
157	291426	30	0.52362461635647
157	313509	31	2.5730224694125
157	313510	32	1.9570330932038
157	319789	33	1.7762572988868
157	319790	34	2.024080570112
157	341956	35	0.55567912974491
157	357174	36	-0.87964843970258
157	363090	37	0.80639272995759
157	363091	38	-0.65965071292594
157	369007	39	0.72250487396959
157	381249	40	-0.85977571837138
157	401496	41	0.97884010695852
157	401497	42	-2.9697209854619
157	407060	43	-3.2376924344921
157	407061	44	-3.9096258168024
157	423319	45	2.3347878072644
157	437808	46	2.4548404037487
157	443007	47	2.4908609070117
157	443008	48	2.0100015052827
157	448199	49	0.11897072131222
157	460080	50	0.73341815045569
157	480342	51	-1.1300276895985
157	480343	52	0.38563834093511
157	485513	53	-0.29249430489726
157	485514	54	0.15729396371171
157	502335	55	-0.27101271492429
157	516999	56	0.9059561746195
157	522176	57	-0.79182729586028
157	522177	58	-0.40272504244271
157	527357	59	-4.2270667910964
157	539017	60	-4.1918824623222
158	17986	3	2.8440564178375
158	17987	4	4.7259930101105
158	42805	5	6.8823797784322
158	59237	6	5.4426080863035
158	65829	7	6.6574432802988
158	65830	8	10.508661020613
158	72416	9	0.973
158	88547	10	1.5457176949463
158	111169	11	2.1170024288223
158	111170	12	3.5345162091711
158	117764	13	2.0420410613842
158	117765	14	0.973
158	141885	15	1.1997318891543
158	158378	16	0.973
158	169634	17	0.973
158	169635	18	0.973
158	176221	19	4.5016273478812
158	193893	20	3.2157203140897
158	215748	21	4.3422746921273
158	215749	22	6.5311516027904
158	222357	23	6.8302069230188
158	222358	24	7.6570316198014
158	246612	25	4.5982080615248
158	262186	26	0.973
158	268828	27	0.973
158	268829	28	0.973
158	275089	29	2.5935710213832
158	291426	30	2.1043465924057
158	313509	31	6.6276378475726
158	313510	32	6.4763732486922
158	319789	33	6.9407600564845
158	319790	34	8.8311940972519
158	341956	35	4.031281852751
158	357174	36	0.973
158	363090	37	4.8849731357219
158	363091	38	0.973
158	369007	39	4.6110608987856
158	381249	40	0.973
158	401496	41	5.5465676527761
158	401497	42	0.973
158	407060	43	0.973
158	407061	44	0.973
158	423319	45	5.3055292601536
158	437808	46	7.1179784200761
158	443007	47	8.8906567720828
158	443008	48	8.6888729793079
158	448199	49	2.4264181511182
158	460080	50	4.6902623825456
158	480342	51	0.973
158	480343	52	3.3172219129195
158	485513	53	0.973
158	485514	54	2.5344131852717
158	502335	55	1.1060214028739
158	516999	56	5.2190218843912
158	522176	57	0.973
158	522177	58	0.973
158	527357	59	0.973
158	539017	60	0.973
159	17986	3	1.6964096914511
159	17987	4	1.3368473113747
159	42805	5	1.3275872161612
159	59237	6	1.9709820190212
159	65829	7	2.2776585371932
159	65830	8	2.2847204888007
159	72416	9	-3.2116185064812
159	88547	10	-3.2726508608437
159	111169	11	-4.0594827073393
159	111170	12	2.2287924908334
159	117764	13	1.9748638385907
159	117765	14	1.6644197624875
159	141885	15	2.1250225800788
159	158378	16	2.3097215975402
159	169634	17	2.1753469938878
159	169635	18	-0.85286227601154
159	176221	19	-3.6655767439477
159	193893	20	-4.5
159	215748	21	2.5407174649648
159	215749	22	2.2212094053626
159	222357	23	1.6861669773514
159	222358	24	1.4015385301784
159	246612	25	1.0043076003566
159	262186	26	0.84634932540357
159	268828	27	-0.25121044414118
159	268829	28	-0.40538024767302
159	275089	29	0.19369601912331
159	291426	30	0.18572428426705
159	313509	31	-0.40780399006326
159	313510	32	-0.0051200855057676
159	319789	33	0.50370653118007
159	319790	34	-0.64774405810387
159	341956	35	-4.5
159	357174	36	-4.5
159	363090	37	-3.1934711350827
159	363091	38	-2.7903259398729
159	369007	39	-0.132363827204
159	381249	40	-0.029871514063436
159	401496	41	2.2553978142096
159	401497	42	1.6944060695823
159	407060	43	1.9964566827752
159	407061	44	2.3204192137346
159	423319	45	2.0191258646315
159	437808	46	2.5931308203377
159	443007	47	1.8110958107514
159	443008	48	0.38405645002336
159	448199	49	0.55129265317228
159	460080	50	-0.20472033764236
159	480342	51	-0.058259354904294
159	480343	52	-0.50081257233396
159	485513	53	0.44051812745165
159	485514	54	-0.042423884687015
159	502335	55	0.11857012724504
159	516999	56	-3.7941804805082
159	522176	57	-3.8130352713983
159	522177	58	-4.304002938188
159	527357	59	1.3515226981603
159	539017	60	2.3126623104326
160	17986	3	3.0251801035647
160	17987	4	3.1673084278709
160	42805	5	3.657897043506
160	59237	6	5.78339950202
160	65829	7	7.8574736643053
160	65830	8	9.3395621581021
160	72416	9	0.973
160	88547	10	0.973
160	111169	11	0.973
160	111170	12	4.0829222235542
160	117764	13	4.8287464888926
160	117765	14	5.0791274431639
160	141885	15	7.2917152990984
160	158378	16	9.2626759297982
160	169634	17	10.204922375424
160	169635	18	0.973
160	176221	19	0.973
160	193893	20	0.973
160	215748	21	7.0061850687723
160	215749	22	7.6835433941302
160	222357	23	7.0913228793884
160	222358	24	6.8288194866061
160	246612	25	5.82649115031
160	262186	26	5.5203316044679
160	268828	27	1.2765064481605
160	268829	28	0.973
160	275089	29	2.9295674323021
160	291426	30	2.9295676139119
160	313509	31	0.973
160	313510	32	2.1599804378572
160	319789	33	4.1553033862722
160	319790	34	0.973
160	341956	35	0.973
160	357174	36	0.973
160	363090	37	0.973
160	363091	38	0.973
160	369007	39	0.973
160	381249	40	1.1103802675735
160	401496	41	2.4512800757477
160	401497	42	2.9234114973329
160	407060	43	4.2822859209675
160	407061	44	6.1896774066422
160	423319	45	6.7171120228148
160	437808	46	9.9839033132315
160	443007	47	8.5283583685781
160	443008	48	3.5507054254492
160	448199	49	4.2945090513302
160	460080	50	1.4324269215594
160	480342	51	1.9712365552317
160	480343	52	0.973
160	485513	53	3.8057509372076
160	485514	54	2.0193136978099
160	502335	55	2.628570843131
160	516999	56	0.973
160	522176	57	0.973
160	522177	58	0.973
160	527357	59	2.9257931347924
160	539017	60	5.4678503230019
161	17986	3	1.410603406583
161	17987	4	1.6439835200086
161	42805	5	1.9916550267488
161	59237	6	2.1000355886295
161	65829	7	2.2179987480631
161	65830	8	1.5067398780491
161	72416	9	1.4578853386687
161	88547	10	1.4357598762517
161	111169	11	0.27071648489218
161	111170	12	-1.3375317146511
161	117764	13	-4.4072969189457
161	117765	14	-3.3843142519123
161	141885	15	1.9318736586953
161	158378	16	1.9141429771436
161	169634	17	1.4785805061925
161	169635	18	2.1948492605239
161	176221	19	1.1237468992847
161	193893	20	-4.5
161	215748	21	-4.5
161	215749	22	1.7097415799042
161	222357	23	1.7548668551957
161	222358	24	1.3966282241978
161	246612	25	2.3099947745679
161	262186	26	1.7046559911221
161	268828	27	0.18274288570541
161	268829	28	-4.3076211877322
161	275089	29	-4.5
161	291426	30	1.8672142070485
161	313509	31	1.7051522985799
161	313510	32	2.5595300220186
161	319789	33	1.7249017789727
161	319790	34	0.69013737383034
161	341956	35	0.23418026906438
161	357174	36	-0.15350469788536
161	363090	37	0.74152972551529
161	363091	38	-0.80584356763866
161	369007	39	0.86109297284857
161	381249	40	0.18196116059553
161	401496	41	-0.083701078919695
161	401497	42	-0.18207180490717
161	407060	43	-2.2168240540405
161	407061	44	-4.0863705847645
161	423319	45	-3.1460828211741
161	437808	46	1.8312385037309
161	443007	47	2.549218213046
161	443008	48	1.4820986934705
161	448199	49	1.5508913887199
161	460080	50	1.6167517320113
161	480342	51	-0.05761512205936
161	480343	52	0.061580268177202
161	485513	53	0.04977264723275
161	485514	54	-0.20049978331663
161	502335	55	0.94124197554775
161	516999	56	-0.12581476157066
161	522176	57	-0.40683846771717
161	522177	58	-3.7831794891828
161	527357	59	-3.9208676284651
161	539017	60	-2.0750244317179
162	17986	3	2.4278442507791
162	17987	4	3.3570843801827
162	42805	5	4.8507751977496
162	59237	6	6.2364464984173
162	65829	7	7.8529393274704
162	65830	8	6.590202892923
162	72416	9	7.0960382349312
162	88547	10	7.6756825997422
162	111169	11	3.3060133803518
162	111170	12	0.973
162	117764	13	0.973
162	117765	14	0.973
162	141885	15	5.7015780656959
162	158378	16	6.6900667787757
162	169634	17	6.216177934334
162	169635	18	9.6979085554886
162	176221	19	6.4088909667846
162	193893	20	0.973
162	215748	21	0.973
162	215749	22	4.9516413374545
162	222357	23	5.9085180808849
162	222358	24	5.6278459299863
162	246612	25	9.6324575543564
162	262186	26	8.517091964984
162	268828	27	2.8975813899699
162	268829	28	0.973
162	275089	29	0.973
162	291426	30	5.4757177886275
162	313509	31	5.9638586544516
162	313510	32	9.8931138919878
162	319789	33	8.1878810765602
162	319790	34	4.7299198927306
162	341956	35	3.0861996469463
162	357174	36	1.6208021897058
162	363090	37	5.1627121984364
162	363091	38	0.973
162	369007	39	5.64604822651
162	381249	40	3.0247573487416
162	401496	41	1.9673798948244
162	401497	42	1.5669485370916
162	407060	43	0.973
162	407061	44	0.973
162	423319	45	0.973
162	437808	46	5.3270120355704
162	443007	47	8.5544056736902
162	443008	48	6.3713790097714
162	448199	49	7.3097543763258
162	460080	50	8.3405963267645
162	480342	51	2.0006481812657
162	480343	52	2.4579786851121
162	485513	53	2.4197090105965
162	485514	54	1.4561052079783
162	502335	55	6.0607632708325
162	516999	56	1.808164997313
162	522176	57	0.973
162	522177	58	0.973
162	527357	59	0.973
162	539017	60	0.973
163	17986	3	2.3636888966663
163	17987	4	1.91023722135
163	42805	5	1.5024960052688
163	59237	6	2.3510229789186
163	65829	7	0.20519812701072
163	65830	8	0.20990467046527
163	72416	9	-4.5
163	88547	10	1.5769188993145
163	111169	11	2.1516010926804
163	111170	12	1.4307308709887
163	117764	13	-0.42708880938589
163	117765	14	-0.05724044831004
163	141885	15	-0.1590481731575
163	158378	16	-0.16779929285403
163	169634	17	0.31395308582578
163	169635	18	-0.33173692431301
163	176221	19	0.4069811752066
163	193893	20	0.61398907655384
163	215748	21	-0.022255349508487
163	215749	22	-0.06433854685165
163	222357	23	-0.28799453810789
163	222358	24	-0.44685589151923
163	246612	25	0.71572653548792
163	262186	26	-0.64989281683229
163	268828	27	-0.2756003732793
163	268829	28	0.02767209727317
163	275089	29	0.20671980553307
163	291426	30	0.66884906024206
163	313509	31	0.12093903312925
163	313510	32	-0.67123763244599
163	319789	33	-0.16680499413051
163	319790	34	0.20631751376204
163	341956	35	0.52712732397486
163	357174	36	-0.73903567604721
163	363090	37	0.61965780800674
163	363091	38	-1.93866774114
163	369007	39	-4.1950283213169
163	381249	40	1.6757115815766
163	401496	41	2.3947139961179
163	401497	42	1.4019627156566
163	407060	43	-0.0770844967803
163	407061	44	0.54045160154346
163	423319	45	-0.061904336581939
163	437808	46	0.28111153263599
163	443007	47	0.12946795404423
163	443008	48	0.038504611817189
163	448199	49	-0.47876069389749
163	460080	50	0.46688549846876
163	480342	51	-0.22385928435251
163	480343	52	-0.71781412225682
163	485513	53	-1.7056021682582
163	485514	54	-4.0601810328546
163	502335	55	2.2547132807551
163	516999	56	1.4537710637715
163	522176	57	2.2990308515728
163	522177	58	0.17649022355587
163	527357	59	-0.5547675433103
163	539017	60	0.72825795805547
164	17986	3	3.9491961802449
164	17987	4	4.4365614561371
164	42805	5	4.4371869226127
164	59237	6	7.572358532161
164	65829	7	2.2490794509959
164	65830	8	2.2883937234002
164	72416	9	0.973
164	88547	10	4.5106096582132
164	111169	11	6.8630060503096
164	111170	12	5.735628652633
164	117764	13	0.973
164	117765	14	1.6074058961464
164	141885	15	1.3323532200465
164	158378	16	1.30300310456
164	169634	17	2.5835475836
164	169635	18	0.973
164	176221	19	2.841919760655
164	193893	20	3.5327548001512
164	215748	21	1.7506383492279
164	215749	22	1.6286199754424
164	222357	23	0.973
164	222358	24	0.973
164	246612	25	3.790186541756
164	262186	26	0.973
164	268828	27	0.973
164	268829	28	1.8026799979489
164	275089	29	2.2872292637654
164	291426	30	3.6547337851891
164	313509	31	2.1523008239248
164	313510	32	0.973
164	319789	33	1.3118205443594
164	319790	34	2.3068629209678
164	341956	35	3.266002589438
164	357174	36	0.973
164	363090	37	3.4945152851953
164	363091	38	0.973
164	369007	39	0.973
164	381249	40	4.269866163156
164	401496	41	7.0109032702755
164	401497	42	5.362279004058
164	407060	43	1.5369675458693
164	407061	44	3.2349797475286
164	423319	45	1.607547222495
164	437808	46	2.569277791039
164	443007	47	2.1676176901944
164	443008	48	1.9184830264461
164	448199	49	0.973
164	460080	50	3.1105126875981
164	480342	51	1.1797592204995
164	480343	52	0.973
164	485513	53	0.973
164	485514	54	0.973
164	502335	55	5.346246465546
164	516999	56	4.5791642333163
164	522176	57	7.7675654957969
164	522177	58	2.2356582830077
164	527357	59	0.973
164	539017	60	3.7476336171532

