version 2
run General-0-20250610-10:35:16-19476
attr configname General
attr datetime 20250610-10:35:16
attr experiment General
attr inifile omnetpp.ini
attr iterationvars ""
attr iterationvarsf ""
attr measurement ""
attr network RSUExampleScenario
attr processid 19476
attr repetition 0
attr replication #0
attr resultdir results
attr runnumber 0
attr seedset 0
param *.playgroundSizeX 5000m
param *.playgroundSizeY 5000m
param *.playgroundSizeZ 50m
param *.annotations.draw true
param *.obstacles.obstacles "xmldoc(\"config.xml\", \"//AnalogueModel[@type='SimpleObstacleShadowing']/obstacles\")"
param *.manager.updateInterval 1s
param *.manager.host "\"localhost\""
param *.manager.port 9999
param *.manager.autoShutdown true
param *.manager.launchConfig "xmldoc(\"erlangen.launchd.xml\")"
param *.manager.trafficLightModuleType "\"org.car2x.veins.nodes.TrafficLight\""
param *.tls[*].mobility.x 0
param *.tls[*].mobility.y 0
param *.tls[*].mobility.z 3
param *.tls[*].applType "\"org.car2x.veins.modules.application.traci.TraCIDemoTrafficLightApp\""
param *.tls[*].logicType "\"org.car2x.veins.modules.world.traci.trafficLight.logics.TraCITrafficLightSimpleLogic\""
param *.rsu[0].mobility.x 1000
param *.rsu[0].mobility.y 1000
param *.rsu[0].mobility.z 3
param *.rsu[*].applType "\"RSUControlApp\""
param *.rsu[*].appl.headerLength "80 bit"
param *.rsu[*].appl.sendBeacons false
param *.rsu[*].appl.dataOnSch false
param *.rsu[*].appl.beaconInterval 1s
param *.rsu[*].appl.beaconUserPriority 7
param *.rsu[*].appl.dataUserPriority 5
param *.rsu[*].appl.netFile "\"./erlangen.net.xml\""
param *.rsu[*].appl.routeFile "\"./erlangen.rou.xml\""
param *.rsu[*].nic.phy80211p.antennaOffsetZ "0 m"
param *.connectionManager.sendDirect true
param *.connectionManager.maxInterfDist 4000m
param *.connectionManager.drawMaxIntfDist false
param *.**.nic.mac1609_4.useServiceChannel false
param *.**.nic.mac1609_4.txPower 50mW
param *.**.nic.mac1609_4.bitrate 6Mbps
param *.**.nic.phy80211p.minPowerLevel -110dBm
param *.**.nic.phy80211p.useNoiseFloor true
param *.**.nic.phy80211p.noiseFloor -98dBm
param *.**.nic.phy80211p.decider "xmldoc(\"config.xml\")"
param *.**.nic.phy80211p.analogueModels "xmldoc(\"config.xml\")"
param *.**.nic.phy80211p.usePropagationDelay true
param *.**.nic.phy80211p.antenna "xmldoc(\"antenna.xml\", \"/root/Antenna[@id='monopole']\")"
param *.node[*].nic.phy80211p.antennaOffsetY "0 m"
param *.node[*].nic.phy80211p.antennaOffsetZ "1.895 m"
param *.node[*].applType "\"VehicleControlApp\""
param *.node[*].appl.headerLength "80 bit"
param *.node[*].appl.sendBeacons true
param *.node[*].appl.dataOnSch false
param *.node[*].appl.beaconInterval 1s
param *.node[*].veinsmobility.x 0
param *.node[*].veinsmobility.y 0
param *.node[*].veinsmobility.z 0
param *.node[*].veinsmobility.setHostSpeed false
param *.node[*0].veinsmobility.accidentCount 1
param *.node[*0].veinsmobility.accidentStart 73s
param *.node[*0].veinsmobility.accidentDuration 50s

vector 0 RSUExampleScenario.node[0].veinsmobility posx ETV
vector 1 RSUExampleScenario.node[0].veinsmobility posy ETV
vector 2 RSUExampleScenario.node[1].veinsmobility posx ETV
vector 3 RSUExampleScenario.node[1].veinsmobility posy ETV
vector 4 RSUExampleScenario.node[2].veinsmobility posx ETV
vector 5 RSUExampleScenario.node[2].veinsmobility posy ETV
vector 6 RSUExampleScenario.node[3].veinsmobility posx ETV
vector 7 RSUExampleScenario.node[3].veinsmobility posy ETV
vector 8 RSUExampleScenario.node[4].veinsmobility posx ETV
vector 9 RSUExampleScenario.node[4].veinsmobility posy ETV
vector 10 RSUExampleScenario.node[5].veinsmobility posx ETV
vector 11 RSUExampleScenario.node[5].veinsmobility posy ETV
vector 12 RSUExampleScenario.node[6].veinsmobility posx ETV
vector 13 RSUExampleScenario.node[6].veinsmobility posy ETV
vector 14 RSUExampleScenario.node[7].veinsmobility posx ETV
vector 15 RSUExampleScenario.node[7].veinsmobility posy ETV
vector 16 RSUExampleScenario.node[8].veinsmobility posx ETV
vector 17 RSUExampleScenario.node[8].veinsmobility posy ETV
vector 18 RSUExampleScenario.node[9].veinsmobility posx ETV
vector 19 RSUExampleScenario.node[9].veinsmobility posy ETV
vector 20 RSUExampleScenario.node[10].veinsmobility posx ETV
vector 21 RSUExampleScenario.node[10].veinsmobility posy ETV
vector 22 RSUExampleScenario.node[11].veinsmobility posx ETV
vector 23 RSUExampleScenario.node[11].veinsmobility posy ETV
vector 24 RSUExampleScenario.node[12].veinsmobility posx ETV
vector 25 RSUExampleScenario.node[12].veinsmobility posy ETV
vector 26 RSUExampleScenario.node[13].veinsmobility posx ETV
vector 27 RSUExampleScenario.node[13].veinsmobility posy ETV
vector 28 RSUExampleScenario.node[14].veinsmobility posx ETV
vector 29 RSUExampleScenario.node[14].veinsmobility posy ETV
vector 30 RSUExampleScenario.node[15].veinsmobility posx ETV
vector 31 RSUExampleScenario.node[15].veinsmobility posy ETV
vector 32 RSUExampleScenario.node[16].veinsmobility posx ETV
vector 33 RSUExampleScenario.node[16].veinsmobility posy ETV
vector 34 RSUExampleScenario.node[17].veinsmobility posx ETV
vector 35 RSUExampleScenario.node[17].veinsmobility posy ETV
vector 36 RSUExampleScenario.node[18].veinsmobility posx ETV
vector 37 RSUExampleScenario.node[18].veinsmobility posy ETV
vector 38 RSUExampleScenario.node[19].veinsmobility posx ETV
vector 39 RSUExampleScenario.node[19].veinsmobility posy ETV
vector 40 RSUExampleScenario.node[20].veinsmobility posx ETV
vector 41 RSUExampleScenario.node[20].veinsmobility posy ETV
vector 42 RSUExampleScenario.node[21].veinsmobility posx ETV
vector 43 RSUExampleScenario.node[21].veinsmobility posy ETV
vector 44 RSUExampleScenario.node[22].veinsmobility posx ETV
vector 45 RSUExampleScenario.node[22].veinsmobility posy ETV
vector 46 RSUExampleScenario.node[23].veinsmobility posx ETV
vector 47 RSUExampleScenario.node[23].veinsmobility posy ETV
vector 48 RSUExampleScenario.node[24].veinsmobility posx ETV
vector 49 RSUExampleScenario.node[24].veinsmobility posy ETV
vector 50 RSUExampleScenario.node[25].veinsmobility posx ETV
vector 51 RSUExampleScenario.node[25].veinsmobility posy ETV
vector 52 RSUExampleScenario.node[26].veinsmobility posx ETV
vector 53 RSUExampleScenario.node[26].veinsmobility posy ETV
vector 54 RSUExampleScenario.node[27].veinsmobility posx ETV
vector 55 RSUExampleScenario.node[27].veinsmobility posy ETV
vector 56 RSUExampleScenario.node[28].veinsmobility posx ETV
vector 57 RSUExampleScenario.node[28].veinsmobility posy ETV
vector 58 RSUExampleScenario.node[29].veinsmobility posx ETV
vector 59 RSUExampleScenario.node[29].veinsmobility posy ETV
vector 60 RSUExampleScenario.node[30].veinsmobility posx ETV
vector 61 RSUExampleScenario.node[30].veinsmobility posy ETV
vector 62 RSUExampleScenario.node[31].veinsmobility posx ETV
vector 63 RSUExampleScenario.node[31].veinsmobility posy ETV
vector 64 RSUExampleScenario.node[0].veinsmobility speed ETV
vector 65 RSUExampleScenario.node[1].veinsmobility speed ETV
vector 66 RSUExampleScenario.node[2].veinsmobility speed ETV
vector 67 RSUExampleScenario.node[3].veinsmobility speed ETV
vector 68 RSUExampleScenario.node[4].veinsmobility speed ETV
vector 69 RSUExampleScenario.node[5].veinsmobility speed ETV
vector 70 RSUExampleScenario.node[6].veinsmobility speed ETV
vector 71 RSUExampleScenario.node[7].veinsmobility speed ETV
vector 72 RSUExampleScenario.node[8].veinsmobility speed ETV
vector 73 RSUExampleScenario.node[9].veinsmobility speed ETV
vector 74 RSUExampleScenario.node[10].veinsmobility speed ETV
vector 75 RSUExampleScenario.node[11].veinsmobility speed ETV
vector 76 RSUExampleScenario.node[12].veinsmobility speed ETV
vector 77 RSUExampleScenario.node[13].veinsmobility speed ETV
vector 78 RSUExampleScenario.node[14].veinsmobility speed ETV
vector 79 RSUExampleScenario.node[15].veinsmobility speed ETV
vector 80 RSUExampleScenario.node[16].veinsmobility speed ETV
vector 81 RSUExampleScenario.node[17].veinsmobility speed ETV
vector 82 RSUExampleScenario.node[18].veinsmobility speed ETV
vector 83 RSUExampleScenario.node[19].veinsmobility speed ETV
vector 84 RSUExampleScenario.node[20].veinsmobility speed ETV
vector 85 RSUExampleScenario.node[21].veinsmobility speed ETV
vector 86 RSUExampleScenario.node[22].veinsmobility speed ETV
vector 87 RSUExampleScenario.node[23].veinsmobility speed ETV
vector 88 RSUExampleScenario.node[24].veinsmobility speed ETV
vector 89 RSUExampleScenario.node[25].veinsmobility speed ETV
vector 90 RSUExampleScenario.node[26].veinsmobility speed ETV
vector 91 RSUExampleScenario.node[27].veinsmobility speed ETV
vector 92 RSUExampleScenario.node[28].veinsmobility speed ETV
vector 93 RSUExampleScenario.node[29].veinsmobility speed ETV
vector 94 RSUExampleScenario.node[30].veinsmobility speed ETV
vector 95 RSUExampleScenario.node[31].veinsmobility speed ETV
vector 96 RSUExampleScenario.node[0].veinsmobility acceleration ETV
vector 97 RSUExampleScenario.node[0].veinsmobility co2emission ETV
vector 98 RSUExampleScenario.node[1].veinsmobility acceleration ETV
vector 99 RSUExampleScenario.node[1].veinsmobility co2emission ETV
vector 100 RSUExampleScenario.node[2].veinsmobility acceleration ETV
vector 101 RSUExampleScenario.node[2].veinsmobility co2emission ETV
vector 102 RSUExampleScenario.node[3].veinsmobility acceleration ETV
vector 103 RSUExampleScenario.node[3].veinsmobility co2emission ETV
vector 104 RSUExampleScenario.node[4].veinsmobility acceleration ETV
vector 105 RSUExampleScenario.node[4].veinsmobility co2emission ETV
vector 106 RSUExampleScenario.node[5].veinsmobility acceleration ETV
vector 107 RSUExampleScenario.node[5].veinsmobility co2emission ETV
vector 108 RSUExampleScenario.node[6].veinsmobility acceleration ETV
vector 109 RSUExampleScenario.node[6].veinsmobility co2emission ETV
vector 110 RSUExampleScenario.node[7].veinsmobility acceleration ETV
vector 111 RSUExampleScenario.node[7].veinsmobility co2emission ETV
vector 112 RSUExampleScenario.node[8].veinsmobility acceleration ETV
vector 113 RSUExampleScenario.node[8].veinsmobility co2emission ETV
vector 114 RSUExampleScenario.node[9].veinsmobility acceleration ETV
vector 115 RSUExampleScenario.node[9].veinsmobility co2emission ETV
vector 116 RSUExampleScenario.node[10].veinsmobility acceleration ETV
vector 117 RSUExampleScenario.node[10].veinsmobility co2emission ETV
vector 118 RSUExampleScenario.node[11].veinsmobility acceleration ETV
vector 119 RSUExampleScenario.node[11].veinsmobility co2emission ETV
vector 120 RSUExampleScenario.node[12].veinsmobility acceleration ETV
vector 121 RSUExampleScenario.node[12].veinsmobility co2emission ETV
vector 122 RSUExampleScenario.node[13].veinsmobility acceleration ETV
vector 123 RSUExampleScenario.node[13].veinsmobility co2emission ETV
vector 124 RSUExampleScenario.node[14].veinsmobility acceleration ETV
vector 125 RSUExampleScenario.node[14].veinsmobility co2emission ETV
vector 126 RSUExampleScenario.node[15].veinsmobility acceleration ETV
vector 127 RSUExampleScenario.node[15].veinsmobility co2emission ETV
vector 128 RSUExampleScenario.node[16].veinsmobility acceleration ETV
vector 129 RSUExampleScenario.node[16].veinsmobility co2emission ETV
vector 130 RSUExampleScenario.node[17].veinsmobility acceleration ETV
vector 131 RSUExampleScenario.node[17].veinsmobility co2emission ETV
vector 132 RSUExampleScenario.node[18].veinsmobility acceleration ETV
vector 133 RSUExampleScenario.node[18].veinsmobility co2emission ETV
vector 134 RSUExampleScenario.node[19].veinsmobility acceleration ETV
vector 135 RSUExampleScenario.node[19].veinsmobility co2emission ETV
vector 136 RSUExampleScenario.node[20].veinsmobility acceleration ETV
vector 137 RSUExampleScenario.node[20].veinsmobility co2emission ETV
vector 138 RSUExampleScenario.node[21].veinsmobility acceleration ETV
vector 139 RSUExampleScenario.node[21].veinsmobility co2emission ETV
vector 140 RSUExampleScenario.node[22].veinsmobility acceleration ETV
vector 141 RSUExampleScenario.node[22].veinsmobility co2emission ETV
vector 142 RSUExampleScenario.node[23].veinsmobility acceleration ETV
vector 143 RSUExampleScenario.node[23].veinsmobility co2emission ETV
vector 144 RSUExampleScenario.node[24].veinsmobility acceleration ETV
vector 145 RSUExampleScenario.node[24].veinsmobility co2emission ETV
vector 146 RSUExampleScenario.node[25].veinsmobility acceleration ETV
vector 147 RSUExampleScenario.node[25].veinsmobility co2emission ETV
vector 148 RSUExampleScenario.node[26].veinsmobility acceleration ETV
vector 149 RSUExampleScenario.node[26].veinsmobility co2emission ETV
vector 150 RSUExampleScenario.node[27].veinsmobility acceleration ETV
vector 151 RSUExampleScenario.node[27].veinsmobility co2emission ETV
vector 152 RSUExampleScenario.node[28].veinsmobility acceleration ETV
vector 153 RSUExampleScenario.node[28].veinsmobility co2emission ETV
vector 154 RSUExampleScenario.node[29].veinsmobility acceleration ETV
vector 155 RSUExampleScenario.node[29].veinsmobility co2emission ETV
vector 156 RSUExampleScenario.node[30].veinsmobility acceleration ETV
vector 157 RSUExampleScenario.node[30].veinsmobility co2emission ETV
vector 158 RSUExampleScenario.node[31].veinsmobility acceleration ETV
vector 159 RSUExampleScenario.node[31].veinsmobility co2emission ETV
159	21962	3	4.4083064121071
159	22283	4	5.054919890084
159	44563	5	6.232205639537
159	60368	6	7.0700911403105
159	66908	7	0.973
159	67229	8	0.973
159	74135	9	3.4460451674923
159	91498	10	5.968940219275
159	114373	11	5.4832140780879
159	116443	12	7.7484792499475
159	123549	13	8.6442691250725
159	124718	14	9.8085987800176
159	147826	15	1.8912388920284
158	21962	3	2.0514420929621
158	22283	4	1.8503263625642
158	44563	5	1.9275384692545
158	60368	6	1.8643309156084
158	66908	7	-0.66256589242637
158	67229	8	-4.4577392888129
158	74135	9	1.0507781578108
158	91498	10	1.8873350342247
158	114373	11	1.4163249111276
158	116443	12	1.8881046326086
158	123549	13	1.8506158606638
158	124718	14	1.8780669269044
158	147826	15	-0.10627973874099
95	15436	2	3.9893178586375
95	21962	3	6.0407599515996
95	22283	4	7.8910863141638
95	44563	5	9.8186247834183
95	60368	6	11.682955699027
95	66908	7	11.0203898066
95	67229	8	6.5626505177875
95	74135	9	7.6134286755983
95	91498	10	9.500763709823
95	114373	11	10.917088620951
95	116443	12	12.805193253559
95	123549	13	14.655809114223
95	124718	14	16.533876041127
95	147826	15	16.427596302386
63	3	1	829.8
63	15436	2	826.6
63	21962	3	826.6
63	22283	4	826.6
63	44563	5	826.6
63	60368	6	826.6
63	66908	7	826.6
63	67229	8	826.6
63	74135	9	826.44052392273
63	91498	10	823.49939561896
63	114373	11	813.66642013976
63	116443	12	801.69978764814
63	123549	13	787.91968654512
63	124718	14	772.03601856381
63	147826	15	755.59526181801
62	3	1	453.43751616605
62	15436	2	456.48454212706
62	21962	3	461.63538207393
62	22283	4	468.71079384177
62	44563	5	477.66586694929
62	60368	6	488.44884371471
62	66908	7	500.53600000626
62	67229	8	509.09999853534
62	74135	9	515.71633254092
62	91498	10	523.66036262863
62	114373	11	526.6
62	116443	12	526.6
62	123549	13	526.6
62	124718	14	526.6
62	147826	15	526.6
99	21962	3	4.1033515222207
99	22283	4	5.285210591366
99	44563	5	6.4657727594652
99	60368	6	7.2296092530898
99	66908	7	0.973
99	67229	8	0.973
99	74135	9	3.4106052324613
99	91498	10	6.3879792920356
99	114373	11	6.9766980399129
99	116443	12	7.9842043626981
99	123549	13	6.0653246703619
99	124718	14	1.8966869124083
99	147826	15	2.0770194382629
99	163648	16	2.2541996683038
98	21962	3	1.9112101688259
98	22283	4	1.9877265523816
98	44563	5	2.018239183058
98	60368	6	1.906309941751
98	66908	7	-0.64963697771992
98	67229	8	-4.4951017216212
98	74135	9	1.0268190971346
98	91498	10	2.0288551963749
98	114373	11	1.8601998252096
98	116443	12	1.8611653145938
98	123549	13	1.1345063426737
98	124718	14	-0.054853362506256
98	147826	15	-0.0030516087310399
98	163648	16	0.046206562293229
65	15436	2	3.9351887049391
65	21962	3	5.8463988737651
65	22283	4	7.8341254261467
65	44563	5	9.8523646092047
65	60368	6	11.758674550956
65	66908	7	11.109037573236
65	67229	8	6.6139358516145
65	74135	9	7.6407549487491
65	91498	10	9.6696101451241
65	114373	11	11.529809970334
65	116443	12	13.390975284927
65	123549	13	14.525481627601
65	124718	14	14.470628265095
65	147826	15	14.467576656364
65	163648	16	14.513783218657
3	3	1	1120.2
3	15436	2	1120.2
3	21962	3	1120.2
3	22283	4	1120.2
3	44563	5	1120.2
3	60368	6	1120.2
3	66908	7	1120.2
3	67229	8	1120.2
3	74135	9	1120.2
3	91498	10	1120.2
3	114373	11	1120.2
3	116443	12	1120.2
3	123549	13	1120.2
3	124718	14	1120.2
3	147826	15	1120.2
3	163648	16	1120.2
2	3	1	908.42928870254
2	15436	2	905.30278960701
2	21962	3	900.3728904494
2	22283	4	893.43452227753
2	44563	5	884.51662416721
2	60368	6	873.61654789095
2	66908	7	861.49254621022
2	67229	8	852.85410018645
2	74135	9	846.1774115051
2	91498	10	837.44222319217
2	114373	11	826.69975094704
2	116443	12	814.16027484376
2	123549	13	799.9780251675
2	124718	14	785.47480047055
2	147826	15	770.97220528665
2	163648	16	756.46816961315
117	21962	3	4.1414645025136
117	22283	4	5.114416129254
117	44563	5	6.022927638386
117	60368	6	7.7373288693891
117	66908	7	8.8671958199085
117	67229	8	8.5167837310661
117	74135	9	2.2702837362123
117	91498	10	2.2386161746493
117	114373	11	2.1301177311562
117	116443	12	2.2908372298446
117	123549	13	2.2429669754459
117	124718	14	2.3657445810209
117	147826	15	2.1926820616184
117	163648	16	2.1955322213568
117	170141	17	1.8464747583847
117	171363	18	2.6129236506294
117	178546	19	2.0817080790923
117	194239	20	1.9882075787501
116	21962	3	1.8892199104046
116	22283	4	1.88772284101
116	44563	5	1.8591415324016
116	60368	6	2.0760875720833
116	66908	7	2.0496649732254
116	67229	8	1.6851409796672
116	74135	9	0.016587748998248
116	91498	10	0.0078936133114631
116	114373	11	-0.020432376379613
116	116443	12	0.021773328569251
116	123549	13	0.008737814102787
116	124718	14	0.04011173039442
116	147826	15	-0.0057072376855647
116	163648	16	-0.0048032087134207
116	170141	17	-0.095290151219814
116	171363	18	0.10580114504555
116	178546	19	-0.034391544549726
116	194239	20	-0.057736389948987
74	15436	2	4.0918091744229
74	21962	3	5.9810290848275
74	22283	4	7.8687519258375
74	44563	5	9.727893458239
74	60368	6	11.803981030322
74	66908	7	13.853646003548
74	67229	8	15.538786983215
74	74135	9	15.555374732213
74	91498	10	15.563268345525
74	114373	11	15.542835969145
74	116443	12	15.564609297714
74	123549	13	15.573347111817
74	124718	14	15.613458842212
74	147826	15	15.607751604526
74	163648	16	15.602948395813
74	170141	17	15.507658244593
74	171363	18	15.613459389638
74	178546	19	15.579067845089
74	194239	20	15.52133145514
21	3	1	1108.4082326574
21	15436	2	1105.1777659438
21	21962	3	1100.0131525339
21	22283	4	1092.9973226676
21	44563	5	1084.1029752893
21	60368	6	1073.2449957068
21	66908	7	1060.3816292032
21	67229	8	1045.5666089783
21	74135	9	1030.0010840921
21	91498	10	1014.4521751112
21	114373	11	998.90045556469
21	116443	12	983.34494731151
21	123549	13	967.76135108534
21	124718	14	952.18497990408
21	147826	15	936.63059424641
21	163648	16	921.05190068718
21	170141	17	905.503754958
21	171363	18	889.92456697757
21	178546	19	874.35881317392
21	194239	20	858.80641344129
20	3	1	1129.8
20	15436	2	1129.8
20	21962	3	1129.8
20	22283	4	1129.8
20	44563	5	1129.8
20	60368	6	1129.8
20	66908	7	1129.8
20	67229	8	1129.8
20	74135	9	1129.8
20	91498	10	1129.8
20	114373	11	1129.8
20	116443	12	1129.8
20	123549	13	1129.8
20	124718	14	1129.8
20	147826	15	1129.8
20	163648	16	1129.8
20	170141	17	1129.8
20	171363	18	1129.8
20	178546	19	1129.8
20	194239	20	1129.8
127	21962	3	5.571519529588
127	22283	4	6.5189731687903
127	44563	5	8.0236568870389
127	60368	6	0.973
127	66908	7	0.973
127	67229	8	6.1257136333109
127	74135	9	6.5221125379505
127	91498	10	2.6351892562701
127	114373	11	8.1453003917775
127	116443	12	8.4495000307075
127	123549	13	2.3149868725553
127	124718	14	1.8305567277569
127	147826	15	2.0427954009936
127	163648	16	2.4825364220371
127	170141	17	1.7301645454287
127	171363	18	2.3908150170614
127	178546	19	1.8097274410923
127	194239	20	1.9683224316321
127	213060	21	2.3923595278574
127	214119	22	1.9299381999252
126	21962	3	1.8402520384011
126	22283	4	1.837949054793
126	44563	5	1.9852839911147
126	60368	6	-3.262660881765
126	66908	7	-3.780093558982
126	67229	8	2.3530713126529
126	74135	9	1.9922873742646
126	91498	10	0.36493521199925
126	114373	11	2.0745193904825
126	116443	12	1.8435417591736
126	123549	13	0.067054467389827
126	124718	14	-0.070594031037764
126	147826	15	-0.0089322427054856
126	163648	16	0.11396246474935
126	170141	17	-0.099758915361017
126	171363	18	0.088050504452548
126	178546	19	-0.07702837010147
126	194239	20	-0.030343900984153
126	213060	21	0.089161316540558
126	214119	22	-0.04273594989907
79	15436	2	7.0984850857453
79	21962	3	8.9387371241464
79	22283	4	10.776686178939
79	44563	5	12.761970170054
79	60368	6	9.4993092882891
79	66908	7	5.7192157293071
79	67229	8	8.07228704196
79	74135	9	10.064574416225
79	91498	10	10.429509628224
79	114373	11	12.504029018706
79	116443	12	14.34757077788
79	123549	13	14.41462524527
79	124718	14	14.344031214232
79	147826	15	14.335098971526
79	163648	16	14.449061436276
79	170141	17	14.349302520915
79	171363	18	14.437353025367
79	178546	19	14.360324655266
79	194239	20	14.329980754282
79	213060	21	14.419142070822
79	214119	22	14.376406120923
31	3	1	1105.4949120752
31	15436	2	1099.24769732
31	21962	3	1091.1226171161
31	22283	4	1081.1912844046
31	44563	5	1069.3091976919
31	60368	6	1057.8561965003
31	66908	7	1050.7519714151
31	67229	8	1043.6865843675
31	74135	9	1034.8739310782
31	91498	10	1029.8
31	114373	11	1029.8
31	116443	12	1029.8
31	123549	13	1029.8
31	124718	14	1029.8
31	147826	15	1029.8
31	163648	16	1029.8
31	170141	17	1029.8
31	171363	18	1029.8
31	178546	19	1029.8
31	194239	20	1029.8
31	213060	21	1029.8
31	214119	22	1029.8
30	3	1	929.8
30	15436	2	929.8
30	21962	3	929.8
30	22283	4	929.8
30	44563	5	929.8
30	60368	6	929.8
30	66908	7	929.8
30	67229	8	930.11471744755
30	74135	9	932.23828203504
30	91498	10	940.67334328794
30	114373	11	952.23825937883
30	116443	12	965.81558539765
30	123549	13	980.21315811963
30	124718	14	994.60150330058
30	147826	15	1008.9919074188
30	163648	16	1023.3850157042
30	170141	17	1037.776166683
30	171363	18	1052.1752961273
30	178546	19	1066.5624651165
30	194239	20	1080.9439807036
30	213060	21	1095.3364890512
30	214119	22	1109.7330987598
107	21962	3	4.2499356713814
107	22283	4	5.4273394079634
107	44563	5	6.4212834261612
107	60368	6	7.4744638039921
107	66908	7	8.7605066421259
107	67229	8	7.7809581769644
107	74135	9	0.973
107	91498	10	0.973
107	114373	11	3.4019566774336
107	116443	12	5.6330194352036
107	123549	13	7.0911996311658
107	124718	14	8.1627469933387
107	147826	15	9.1701731241058
107	163648	16	5.5015853701662
107	170141	17	2.4926322059222
107	171363	18	2.141711322987
107	178546	19	2.0171576028041
107	194239	20	0.973
107	213060	21	0.973
107	214119	22	6.7428324512594
106	21962	3	1.9378016761085
106	22283	4	1.9993595305108
106	44563	5	1.9618434132892
106	60368	6	1.9516992523521
106	66908	7	1.9981964672869
106	67229	8	1.4982147327543
106	74135	9	-4.4475449199239
106	91498	10	-4.497235795268
106	114373	11	1.036676529285
106	116443	12	1.7773859481094
106	123549	13	1.9505725618312
106	124718	14	1.9450077325269
106	147826	15	1.9197224814561
106	163648	16	0.84147154681111
106	170141	17	0.058603204677345
106	171363	18	-0.031226117727346
106	178546	19	-0.061824855429585
106	194239	20	-2.4106067375237
106	213060	21	-4.4925361595982
106	214119	22	1.89
69	15436	2	4.1164143116664
69	21962	3	6.0542159877749
69	22283	4	8.0535755182858
69	44563	5	10.015418931575
69	60368	6	11.967118183927
69	66908	7	13.965314651214
69	67229	8	15.463529383968
69	74135	9	11.015984464044
69	91498	10	6.5187486687764
69	114373	11	7.5554251980614
69	116443	12	9.3328111461709
69	123549	13	11.283383708002
69	124718	14	13.228391440529
69	147826	15	15.148113921985
69	163648	16	15.989585468796
69	170141	17	16.048188673474
69	171363	18	16.016962555746
69	178546	19	15.955137700317
69	194239	20	13.544530962793
69	213060	21	9.0519948031947
69	214119	22	10.941994803195
11	3	1	1248.498066442
11	15436	2	1248.4898614114
11	21962	3	1252.1782472125
11	22283	4	1257.1757432159
11	44563	5	1263.6118530834
11	60368	6	1271.488723997
11	66908	7	1280.7520593669
11	67229	8	1291.307255351
11	74135	9	1300.5104036222
11	91498	10	1306.549955119
11	114373	11	1311.0764331151
11	116443	12	1316.1831138102
11	123549	13	1318.6137601784
11	124718	14	1314.0158059558
11	147826	15	1304.5692487029
11	163648	16	1293.3498688466
11	170141	17	1282.0336207308
11	171363	18	1270.724540849
11	178546	19	1259.4100951836
11	194239	20	1248.686908231
11	213060	21	1240.8557448117
11	214119	22	1233.9495998318
10	3	1	1641.708066442
10	15436	2	1646.2198614114
10	21962	3	1649.9082472125
10	22283	4	1654.9057432159
10	44563	5	1661.3418530834
10	60368	6	1669.218723997
10	66908	7	1678.4820593669
10	67229	8	1689.037255351
10	74135	9	1698.2404036222
10	91498	10	1704.279955119
10	114373	11	1709.0396776971
10	116443	12	1715.8566527167
10	123549	13	1725.8249592866
10	124718	14	1737.0365149563
10	147826	15	1747.699990628
10	163648	16	1758.9179017869
10	170141	17	1770.2326685244
10	171363	18	1781.5402679664
10	178546	19	1792.8532324895
10	194239	20	1803.5750156999
10	213060	21	1811.4051539636
10	214119	22	1818.3177704692
141	21962	3	5.6701628931338
141	22283	4	6.6927612889052
141	44563	5	7.6398245151738
141	60368	6	7.3323981851249
141	66908	7	1.9659518461976
141	67229	8	1.9520866141791
141	74135	9	2.0214084157886
141	91498	10	1.8942788474089
141	114373	11	2.3632473559414
141	116443	12	0.973
141	123549	13	0.973
141	124718	14	0.973
141	147826	15	6.5627454383371
141	163648	16	7.5515782942873
141	170141	17	8.6175443557337
141	171363	18	3.0837602234283
141	178546	19	2.047562063557
141	194239	20	1.9302790052297
141	213060	21	2.2723035724425
141	214119	22	1.6752974960212
140	21962	3	2.0111436323542
140	22283	4	1.9788937483565
140	44563	5	1.93269905644
140	60368	6	1.5773444232051
140	66908	7	-0.019342441270128
140	67229	8	-0.022819547539111
140	74135	9	-0.0020619573234573
140	91498	10	-0.038948188361246
140	114373	11	0.097799087087623
140	116443	12	-1.8933746288077
140	123549	13	-4.467391894526
140	124718	14	-0.24
140	147826	15	2.1464924003463
140	163648	16	2.0603812796879
140	170141	17	2.0223299156711
140	171363	18	0.3150161198778
140	178546	19	0.0055065931756317
140	194239	20	-0.028681102241389
140	213060	21	0.071066339646931
140	214119	22	-0.10417275101179
86	15436	2	6.4410356701864
86	21962	3	8.4521793025406
86	22283	4	10.431073050897
86	44563	5	12.363772107337
86	60368	6	13.941116530542
86	66908	7	13.921774089272
86	67229	8	13.898954541733
86	74135	9	13.89689258441
86	91498	10	13.857944396048
86	114373	11	13.955743483136
86	116443	12	12.062368854328
86	123549	13	7.5949769598022
86	124718	14	7.3549769598022
86	147826	15	9.5014693601486
86	163648	16	11.561850639836
86	170141	17	13.584180555508
86	171363	18	13.899196675385
86	178546	19	13.904703268561
86	194239	20	13.87602216632
86	213060	21	13.947088505967
86	214119	22	13.842915754955
45	3	1	1320.2
45	15436	2	1320.2
45	21962	3	1320.2
45	22283	4	1320.2
45	44563	5	1320.2
45	60368	6	1320.2
45	66908	7	1320.2
45	67229	8	1320.2
45	74135	9	1320.2
45	91498	10	1320.2
45	114373	11	1320.2
45	116443	12	1320.2
45	123549	13	1320.2
45	124718	14	1320.2
45	147826	15	1321.3549783897
45	163648	16	1325.4272514827
45	170141	17	1335.3040830397
45	171363	18	1348.9015863253
45	178546	19	1362.8004205325
45	194239	20	1376.6837975891
45	213060	21	1390.5911877737
45	214119	22	1404.5014766459
44	3	1	1394.3816139447
44	15436	2	1388.8241385566
44	21962	3	1381.2666415276
44	22283	4	1371.7189820913
44	44563	5	1360.1836885014
44	60368	6	1346.8467040491
44	66908	7	1332.9455821585
44	67229	8	1319.052649444
44	74135	9	1305.1293165849
44	91498	10	1291.2516362308
44	114373	11	1277.346881554
44	116443	12	1263.9174111382
44	123549	13	1254.3154314146
44	124718	14	1247.7044544548
44	147826	15	1239.181482889
44	163648	16	1229.5392229245
44	170141	17	1221.9656097114
44	171363	18	1220.2
44	178546	19	1220.2
44	194239	20	1220.2
44	213060	21	1220.2
44	214119	22	1220.2
133	21962	3	4.155810318792
133	22283	4	5.5443083280989
133	44563	5	6.8067231998829
133	60368	6	7.159786151049
133	66908	7	8.6024935941461
133	67229	8	7.210433361619
133	74135	9	2.2447501613826
133	91498	10	2.2965465864722
133	114373	11	2.0588344752169
133	116443	12	2.2131119074938
133	123549	13	2.1580303172024
133	124718	14	2.2543510828944
133	147826	15	0.973
133	163648	16	0.973
133	170141	17	0.973
133	171363	18	6.0698021621837
133	178546	19	6.3992644081681
133	194239	20	7.0466736145692
133	213060	21	8.1814689744498
133	214119	22	7.4523571303895
133	220005	23	2.3203873430474
133	220526	24	2.1676449994425
132	21962	3	1.9028248019656
132	22283	4	2.0648265564488
132	44563	5	2.094023778087
132	60368	6	1.8417867328972
132	66908	7	1.957451861382
132	67229	8	1.3652466949607
132	74135	9	0.017478406201116
132	91498	10	0.030516805266961
132	114373	11	-0.032837546223309
132	116443	12	0.0087050567893314
132	123549	13	-0.0060328586259857
132	124718	14	0.019447179390118
132	147826	15	-1.6865145753985
132	163648	16	-4.5
132	170141	17	-3.076383618592
132	171363	18	2.2479351407709
132	178546	19	1.9065960957832
132	194239	20	1.7942986913398
132	213060	21	1.8431530095218
132	214119	22	1.4311863288206
132	220005	23	0.037396794504021
132	220526	24	-0.0038318048440846
82	15436	2	4.068015635966
82	21962	3	5.9708404379316
82	22283	4	8.0356669943804
82	44563	5	10.129690772467
82	60368	6	11.971477505365
82	66908	7	13.928929366747
82	67229	8	15.294176061707
82	74135	9	15.311654467908
82	91498	10	15.342171273175
82	114373	11	15.309333726952
82	116443	12	15.318038783741
82	123549	13	15.312005925115
82	124718	14	15.331453104506
82	147826	15	13.644938529107
82	163648	16	9.144938529107
82	170141	17	6.068554910515
82	171363	18	8.3164900512859
82	178546	19	10.223086147069
82	194239	20	12.017384838409
82	213060	21	13.860537847931
82	214119	22	15.291724176751
82	220005	23	15.329120971255
82	220526	24	15.325289166411
37	3	1	646.59327597271
37	15436	2	649.40473213269
37	21962	3	653.97873415769
37	22283	4	660.36810653349
37	44563	5	668.60076692979
37	60368	6	678.55076256454
37	66908	7	690.1976539848
37	67229	8	703.507143171
37	74135	9	717.20916451051
37	91498	10	730.91657745444
37	114373	11	744.63175828768
37	116443	12	758.34987914055
37	123549	13	772.02732427397
37	124718	14	785.72052621158
37	147826	15	799.04071549177
37	163648	16	809.03103345058
37	170141	17	815.18838120478
37	171363	18	821.60092483196
37	178546	19	830.14796440796
37	194239	20	841.28694289874
37	213060	21	854.31988056067
37	214119	22	869.11512412646
37	220005	23	884.43852729248
37	220526	24	899.75602170187
36	3	1	1230.431793666
36	15436	2	1231.837601278
36	21962	3	1234.1247316824
36	22283	4	1237.3195986163
36	44563	5	1241.4361617044
36	60368	6	1246.4114409927
36	66908	7	1252.2352161764
36	67229	8	1258.8903372755
36	74135	9	1265.7417355555
36	91498	10	1272.5958297902
36	114373	11	1279.4538081893
36	116443	12	1286.3132566814
36	123549	13	1293.1523661631
36	124718	14	1299.9993544927
36	147826	15	1306.6598259415
36	163648	16	1311.6552675325
36	170141	17	1314.734115592
36	171363	18	1317.9826673081
36	178546	19	1320.1174008075
36	194239	20	1320.2
36	213060	21	1320.2
36	214119	22	1320.2
36	220005	23	1320.2
36	220526	24	1320.2
125	21962	3	3.875844564241
125	22283	4	4.903850493175
125	44563	5	5.943927308664
125	60368	6	6.8388048539684
125	66908	7	7.8623920506049
125	67229	8	5.8754778056678
125	74135	9	2.054009387351
125	91498	10	2.0589616963527
125	114373	11	1.9423503371116
125	116443	12	2.4791065248488
125	123549	13	2.0680318067805
125	124718	14	2.0862584518668
125	147826	15	2.0108639629242
125	163648	16	2.015963974725
125	170141	17	2.19858080196
125	171363	18	1.8044634022363
125	178546	19	2.0548962065152
125	194239	20	2.0546390852947
125	213060	21	2.0868665553546
125	214119	22	2.2034995549836
125	220005	23	2.1470214899901
125	220526	24	2.1009321374276
125	237261	25	1.8517774295195
125	246811	26	2.1323579586239
125	251102	27	1.8997837765228
125	251808	28	2.390310621869
125	256686	29	1.9039385126376
125	268881	30	2.2930708059931
124	21962	3	1.7387158883456
124	22283	4	1.8214276707196
124	44563	5	1.8622859822703
124	60368	6	1.8355318246502
124	66908	7	1.8477967384993
124	67229	8	1.0993582932281
124	74135	9	-0.0058203258644784
124	91498	10	-0.0042589048598902
124	114373	11	-0.036983184928539
124	116443	12	0.11437207217095
124	123549	13	-0.003858820684254
124	124718	14	0.0013487766752949
124	147826	15	-0.019785801670514
124	163648	16	-0.017795600928366
124	170141	17	0.033815278038382
124	171363	18	-0.077757644962984
124	178546	19	-0.0050828962028024
124	194239	20	-0.0050067259441136
124	213060	21	0.0042032508458938
124	214119	22	0.036776726800017
124	220005	23	0.019825113122351
124	220526	24	0.0063297473499553
124	237261	25	-0.063878629289102
124	246811	26	0.016878233763855
124	251102	27	-0.049100664972793
124	251808	28	0.090020591635257
124	256686	29	-0.049004045634065
124	268881	30	0.061525984848849
78	15436	2	4.1402637931638
78	21962	3	5.8789796815094
78	22283	4	7.700407352229
78	44563	5	9.5626933344992
78	60368	6	11.398225159149
78	66908	7	13.246021897649
78	67229	8	14.345380190877
78	74135	9	14.339559865012
78	91498	10	14.335300960152
78	114373	11	14.298317775224
78	116443	12	14.412689847395
78	123549	13	14.408831026711
78	124718	14	14.410179803386
78	147826	15	14.390394001715
78	163648	16	14.372598400787
78	170141	17	14.406413678825
78	171363	18	14.328656033862
78	178546	19	14.32357313766
78	194239	20	14.318566411716
78	213060	21	14.322769662561
78	214119	22	14.359546389361
78	220005	23	14.379371502484
78	220526	24	14.385701249834
78	237261	25	14.321822620545
78	246811	26	14.338700854309
78	251102	27	14.289600189336
78	251808	28	14.379620780971
78	256686	29	14.330616735337
78	268881	30	14.392142720186
29	3	1	231.1451969846
29	15436	2	234.40596108134
29	21962	3	239.46314716796
29	22283	4	246.3376604663
29	44563	5	255.05087374029
29	60368	6	265.60946109777
29	66908	7	278.02738644227
29	67229	8	292.16244407451
29	74135	9	306.50927892524
29	91498	10	320.85317500487
29	114373	11	335.19410852191
29	116443	12	349.55252186516
29	123549	13	363.89752563065
29	124718	14	378.25845492603
29	147826	15	392.61071217936
29	163648	16	406.96109365694
29	170141	17	421.32166471396
29	171363	18	435.68554275589
29	178546	19	450.03933609087
29	194239	20	464.39921101727
29	213060	21	478.73795356416
29	214119	22	493.06370853608
29	220005	23	507.42560232615
29	220526	24	521.77276617021
29	237261	25	536.11464399277
29	246811	26	550.46260580858
29	251102	27	564.80527573613
29	251808	28	579.15704233758
29	256686	29	593.50674414147
29	268881	30	607.85769688128
28	3	1	1220.2
28	15436	2	1220.2
28	21962	3	1220.2
28	22283	4	1220.2
28	44563	5	1220.2
28	60368	6	1220.2
28	66908	7	1220.2
28	67229	8	1220.2
28	74135	9	1220.2
28	91498	10	1220.2
28	114373	11	1220.2
28	116443	12	1220.2
28	123549	13	1220.2
28	124718	14	1220.2
28	147826	15	1220.2
28	163648	16	1220.2
28	170141	17	1220.2
28	171363	18	1220.2
28	178546	19	1220.2
28	194239	20	1220.2
28	213060	21	1220.2
28	214119	22	1220.2
28	220005	23	1220.2
28	220526	24	1220.2
28	237261	25	1220.2
28	246811	26	1220.2
28	251102	27	1220.2
28	251808	28	1220.2
28	256686	29	1220.2
28	268881	30	1220.2
143	21962	3	3.8416642107634
143	22283	4	5.2410045775893
143	44563	5	6.1274628900783
143	60368	6	3.3255897697097
143	66908	7	1.5424009365593
143	67229	8	2.0310774614048
143	74135	9	0.973
143	91498	10	0.973
143	114373	11	0.973
143	116443	12	1.2571003892834
143	123549	13	2.9193510414867
143	124718	14	4.1923632240723
143	147826	15	5.8965578938603
143	163648	16	6.781086645589
143	170141	17	1.6107552647923
143	171363	18	1.834588823758
143	178546	19	1.6161038628242
143	194239	20	1.7379691141048
143	213060	21	0.973
143	214119	22	4.563900199614
143	220005	23	6.3325652893526
143	220526	24	3.5117510147381
143	237261	25	1.6364444571139
143	246811	26	1.754170738912
143	251102	27	1.5194890258731
143	251808	28	1.7984687274746
143	256686	29	1.8267263826972
143	268881	30	1.6318120650823
143	281149	31	1.6556039272136
142	21962	3	1.737337206963
142	22283	4	1.9773502252647
142	44563	5	1.9103202392859
142	60368	6	0.64735697844739
142	66908	7	-0.066146840371657
142	67229	8	0.12561264308402
142	74135	9	-1.7000523705078
142	91498	10	-3.7319452771762
142	114373	11	-2.2964762983449
142	116443	12	0.023068346399814
142	123549	13	1.5565202636248
142	124718	14	1.872176486426
142	147826	15	2.1673798241396
142	163648	16	2.0362729145825
142	170141	17	-0.038932112369221
142	171363	18	0.04950418719789
142	178546	19	-0.03711908248486
142	194239	20	0.011569978136103
142	213060	21	-4.284627015046
142	214119	22	1.644012773768
142	220005	23	2.0026373909065
142	220526	24	0.71694612138919
142	237261	25	-0.030629450625275
142	246811	26	0.015970608682839
142	251102	27	-0.076013887082228
142	251808	28	0.035089038845618
142	256686	29	0.044829867852387
142	268881	30	-0.03213892408181
142	281149	31	-0.021965173648205
87	15436	2	4.0739965503668
87	21962	3	5.8113337573298
87	22283	4	7.7886839825944
87	44563	5	9.6990042218804
87	60368	6	10.346361200328
87	66908	7	10.280214359956
87	67229	8	10.40582700304
87	74135	9	8.7057746325323
87	91498	10	4.9738293553561
87	114373	11	2.6773530570112
87	116443	12	2.700421403411
87	123549	13	4.2569416670359
87	124718	14	6.1291181534619
87	147826	15	8.2964979776015
87	163648	16	10.332770892184
87	170141	17	10.293838779815
87	171363	18	10.343342967013
87	178546	19	10.306223884528
87	194239	20	10.317793862664
87	213060	21	6.0331668476179
87	214119	22	7.677179621386
87	220005	23	9.6798170122924
87	220526	24	10.396763133682
87	237261	25	10.366133683056
87	246811	26	10.382104291739
87	251102	27	10.306090404657
87	251808	28	10.341179443503
87	256686	29	10.386009311355
87	268881	30	10.353870387273
87	281149	31	10.331905213625
47	3	1	1308.4501115212
47	15436	2	1305.285293667
47	21962	3	1300.2661323064
47	22283	4	1293.3121091575
47	44563	5	1284.4414484172
47	60368	6	1274.1762777417
47	66908	7	1263.8399163162
47	67229	8	1253.4968772978
47	74135	9	1243.5485860231
47	91498	10	1236.9395317421
47	114373	11	1234.1220977218
47	116443	12	1235.0812864016
47	123549	13	1238.4492795979
47	124718	14	1243.7036935853
47	147826	15	1250.9782595916
47	163648	16	1260.4470208244
47	170141	17	1270.7719031702
47	171363	18	1281.122504795
47	178546	19	1291.4660914851
47	194239	20	1301.7896553761
47	213060	21	1309.8478222238
47	214119	22	1316.5487229568
47	220005	23	1325.2702833594
47	220526	24	1335.3098136026
47	237261	25	1345.6302400956
47	246811	26	1355.9830119401
47	251102	27	1366.3104925462
47	251808	28	1376.6419525239
47	256686	29	1386.9779713151
47	268881	30	1397.3456455215
47	281149	31	1407.6985163969
46	3	1	629.8
46	15436	2	626.6
46	21962	3	626.6
46	22283	4	626.6
46	44563	5	626.6
46	60368	6	626.6
46	66908	7	626.6
46	67229	8	626.6
46	74135	9	626.6
46	91498	10	626.6
46	114373	11	625.64419544367
46	116443	12	623.61247573225
46	123549	13	623.4
46	124718	14	620.2
46	147826	15	620.2
46	163648	16	620.2
46	170141	17	620.2
46	171363	18	620.2
46	178546	19	620.2
46	194239	20	620.2
46	213060	21	620.2
46	214119	22	620.33939363067
46	220005	23	621.4387430101
46	220526	24	623.38837804157
46	237261	25	623.4
46	246811	26	623.4
46	251102	27	623.4
46	251808	28	623.4
46	256686	29	623.4
46	268881	30	623.4
46	281149	31	623.4
149	21962	3	4.3100075144597
149	22283	4	5.0898163335119
149	44563	5	6.4092809917989
149	60368	6	7.7483793379926
149	66908	7	6.7026247548313
149	67229	8	1.9640770091734
149	74135	9	2.1855997583501
149	91498	10	1.8592662708482
149	114373	11	1.9422709969202
149	116443	12	2.2193181712289
149	123549	13	1.99062610696
149	124718	14	1.8372611972569
149	147826	15	0.973
149	163648	16	0.973
149	170141	17	6.3386233236814
149	171363	18	1.7694511433754
149	178546	19	6.9663786651948
149	194239	20	7.8890590009427
149	213060	21	5.8554865148977
149	214119	22	1.8816304485963
149	220005	23	2.0235555293956
149	220526	24	2.0303671167102
149	237261	25	2.0336865669878
149	246811	26	1.935086565061
149	251102	27	2.0179557821323
149	251808	28	1.989790895049
149	256686	29	1.6909473968207
149	268881	30	1.9271932685463
149	281149	31	2.1324633831764
149	281833	32	2.1529455767711
149	285496	33	1.7602487845247
148	21962	3	1.9450886458997
148	22283	4	1.8421377035766
148	44563	5	1.9695818814822
148	60368	6	2.0401058347523
148	66908	7	1.4551522601541
148	67229	8	-0.005991346267983
148	74135	9	0.060251888490749
148	91498	10	-0.038914718145971
148	114373	11	-0.012965197612065
148	116443	12	0.069965580978895
148	123549	13	-0.0001782652875395
148	124718	14	-0.045985180686694
148	147826	15	-3.2485734024603
148	163648	16	-4.4932498045988
148	170141	17	2.4299917118321
148	171363	18	0.10432218322883
148	178546	19	2.1008881307626
148	194239	20	2.0119595136936
148	213060	21	1.1806422772555
148	214119	22	-0.033785185851157
148	220005	23	0.009436553684063
148	220526	24	0.011174993510359
148	237261	25	0.011821885821409
148	246811	26	-0.017819877637084
148	251102	27	0.0073341281875035
148	251808	28	-0.0012495550164022
148	256686	29	-0.09060125124175
148	268881	30	-0.01728898135014
148	281149	31	0.044553782010917
148	281833	32	0.049178876928053
148	285496	33	-0.069419831829144
90	15436	2	4.2028833847593
90	21962	3	6.1479720306589
90	22283	4	7.9901097342355
90	44563	5	9.9596916157177
90	60368	6	11.99979745047
90	66908	7	13.454949710624
90	67229	8	13.448958364356
90	74135	9	13.509210252847
90	91498	10	13.470295534701
90	114373	11	13.457330337089
90	116443	12	13.527295918068
90	123549	13	13.52711765278
90	124718	14	13.481132472093
90	147826	15	10.232559069633
90	163648	16	5.7393092650344
90	170141	17	8.1693009768665
90	171363	18	8.2736231600954
90	178546	19	10.374511290858
90	194239	20	12.386470804552
90	213060	21	13.567113081807
90	214119	22	13.533327895956
90	220005	23	13.54276444964
90	220526	24	13.55393944315
90	237261	25	13.565761328972
90	246811	26	13.547941451335
90	251102	27	13.555275579522
90	251808	28	13.554026024506
90	256686	29	13.463424773264
90	268881	30	13.446135791914
90	281149	31	13.490689573925
90	281833	32	13.539868450853
90	285496	33	13.470448619024
53	3	1	1003.1926399821
53	15436	2	999.91627520697
53	21962	3	994.69607888267
53	22283	4	987.5315376238
53	44563	5	978.43631485606
53	60368	6	967.3284414341
53	66908	7	954.24760347652
53	67229	8	940.73345891568
53	74135	9	927.22473875193
53	91498	10	913.70944343302
53	114373	11	900.20770217283
53	116443	12	886.69883025805
53	123549	13	873.18459158515
53	124718	14	859.68122188496
53	147826	15	847.55131749842
53	163648	16	839.78970831154
53	170141	17	832.66488733896
53	171363	18	825.86024924214
53	178546	19	821.64167578344
53	194239	20	816.50071582746
53	213060	21	810.56976895922
53	214119	22	804.53242916424
53	220005	23	798.47808823725
53	220526	24	792.43753376409
53	237261	25	786.40078472914
53	246811	26	780.35594242757
53	251102	27	774.31013680479
53	251808	28	768.25559523931
53	256686	29	762.2182933875
53	268881	30	756.18329248034
53	281149	31	750.1475057818
53	281833	32	744.09999261199
53	285496	33	738.0635671806
52	3	1	629.8
52	15436	2	629.8
52	21962	3	629.8
52	22283	4	629.8
52	44563	5	629.8
52	60368	6	629.8
52	66908	7	629.8
52	67229	8	629.8
52	74135	9	629.8
52	91498	10	629.8
52	114373	11	629.8
52	116443	12	629.8
52	123549	13	629.8
52	124718	14	629.8
52	147826	15	629.8
52	163648	16	629.8
52	170141	17	629.99478547141
52	171363	18	634.01950151572
52	178546	19	642.45664843311
52	194239	20	652.73856834508
52	213060	21	664.60046208156
52	214119	22	676.67514167152
52	220005	23	688.78382352549
52	220526	24	700.86493247181
52	237261	25	712.93843054172
52	246811	26	725.02811514485
52	251102	27	737.11972639042
52	251808	28	749.22880952138
52	256686	29	761.30341322501
52	268881	30	773.37341503932
52	281149	31	785.4449884364
52	281833	32	797.54001477603
52	285496	33	809.6128656388
153	21962	3	3.9670906514516
153	22283	4	5.3335959385704
153	44563	5	6.3853815842985
153	60368	6	7.439066350073
153	66908	7	8.5048793422394
153	67229	8	4.2014280358685
153	74135	9	1.9498142652067
153	91498	10	2.1619630971889
153	114373	11	1.9596076940601
153	116443	12	2.1174110196611
153	123549	13	1.9329474079559
153	124718	14	2.0646368799425
153	147826	15	0.973
153	163648	16	0.973
153	170141	17	4.6651368585119
153	171363	18	5.6827086817624
153	178546	19	2.3165363130336
153	194239	20	7.029460536558
153	213060	21	9.2446754353061
153	214119	22	3.524644151417
153	220005	23	0.973
153	220526	24	0.973
153	237261	25	0.973
153	246811	26	1.3556213192348
153	251102	27	1.4363156013331
153	251808	28	5.434628682031
153	256686	29	6.1277251424808
153	268881	30	6.8686455194624
153	281149	31	8.1030854092512
153	281833	32	3.8648498141825
153	285496	33	2.3953173631357
153	285957	34	1.8906352607047
152	21962	3	1.8506625405839
152	22283	4	2.0305054047867
152	44563	5	2.0019223378203
152	60368	6	1.9803564307792
152	66908	7	1.9638174900645
152	67229	8	0.6157174991185
152	74135	9	-0.034937080158853
152	91498	10	0.025778188975529
152	114373	11	-0.03192258221563
152	116443	12	0.013455495815725
152	123549	13	-0.038954422688112
152	124718	14	-0.00064520714106031
152	147826	15	-3.6542232353924
152	163648	16	-4.5
152	170141	17	1.6709659381444
152	171363	18	1.753669530248
152	178546	19	0.27305420733756
152	194239	20	1.8529666399909
152	213060	21	2.1665299876616
152	214119	22	0.42462776770043
152	220005	23	-2.7913617969527
152	220526	24	-4.5
152	237261	25	-0.48744104454092
152	246811	26	-0.057269015838392
152	251102	27	-0.0049427840719005
152	251808	28	1.9244415960251
152	256686	29	1.8111071388167
152	268881	30	1.7526197257033
152	281149	31	1.8387101217825
152	281833	32	0.52303786868622
152	285496	33	0.092224064737094
152	285957	34	-0.052218511584215
92	15436	2	3.8945559100624
92	21962	3	5.7452184506463
92	22283	4	7.7757238554329
92	44563	5	9.7776461932532
92	60368	6	11.758002624032
92	66908	7	13.721820114097
92	67229	8	14.337537613215
92	74135	9	14.302600533057
92	91498	10	14.328378722032
92	114373	11	14.296456139817
92	116443	12	14.309911635632
92	123549	13	14.270957212944
92	124718	14	14.270312005803
92	147826	15	10.616088770411
92	163648	16	6.1160887704107
92	170141	17	7.7870547085551
92	171363	18	9.5407242388031
92	178546	19	9.8137784461406
92	194239	20	11.666745086132
92	213060	21	13.833275073793
92	214119	22	14.257902841494
92	220005	23	11.466541044541
92	220526	24	6.9665410445409
92	237261	25	6.4791
92	246811	26	6.4218309841616
92	251102	27	6.4168882000897
92	251808	28	8.3413297961148
92	256686	29	10.152436934932
92	268881	30	11.905056660635
92	281149	31	13.743766782417
92	281833	32	14.266804651104
92	285496	33	14.359028715841
92	285957	34	14.306810204256
57	3	1	1008.4449999972
57	15436	2	1005.3714581657
57	21962	3	1000.5037749064
57	22283	4	993.67835483148
57	44563	5	984.83882018653
57	60368	6	973.93511264723
57	66908	7	961.09481929021
57	67229	8	946.85557091305
57	74135	9	932.51789687154
57	91498	10	918.18689335944
57	114373	11	903.88106647138
57	116443	12	889.58060184938
57	123549	13	875.27360631555
57	124718	14	860.97486989762
57	147826	15	848.40684494094
57	163648	16	840.26575617053
57	170141	17	833.4925850789
57	171363	18	825.80997672798
57	178546	19	820.2
57	194239	20	820.2
57	213060	21	820.2
57	214119	22	820.2
57	220005	23	820.2
57	220526	24	820.2
57	237261	25	820.16679280216
57	246811	26	818.23296732594
57	251102	27	812.72798476938
57	251808	28	807.47854315673
57	256686	29	800.80467791471
57	268881	30	792.94260910702
57	281149	31	783.79713085703
57	281833	32	773.72715891957
57	285496	33	763.60756809533
57	285957	34	753.49674603989
56	3	1	529.8
56	15436	2	529.8
56	21962	3	529.8
56	22283	4	526.6
56	44563	5	526.6
56	60368	6	526.6
56	66908	7	526.6
56	67229	8	526.6
56	74135	9	526.6
56	91498	10	526.6
56	114373	11	526.6
56	116443	12	526.6
56	123549	13	526.6
56	124718	14	526.6
56	147826	15	526.6
56	163648	16	526.6
56	170141	17	526.32751215413
56	171363	18	522.61662787997
56	178546	19	513.58666088446
56	194239	20	502.73692277548
56	213060	21	489.84172416052
56	214119	22	475.57748218728
56	220005	23	462.33141592992
56	220526	24	453.33987488538
56	237261	25	446.98254829171
56	246811	26	441.16175074689
56	251102	27	444.07982483651
56	251808	28	449.31145684327
56	256686	29	455.98532208529
56	268881	30	463.84739089298
56	281149	31	472.99286914297
56	281833	32	483.06284108043
56	285496	33	493.18243190467
56	285957	34	503.29325396011
139	21962	3	4.0050323708982
139	22283	4	5.4365256627325
139	44563	5	6.2441253327531
139	60368	6	7.4847057929858
139	66908	7	3.0280432251218
139	67229	8	1.8418522680647
139	74135	9	1.8097565026595
139	91498	10	2.1056236404039
139	114373	11	1.8647295582077
139	116443	12	1.7990852006216
139	123549	13	1.6427879309659
139	124718	14	1.9799795801225
139	147826	15	0.973
139	163648	16	0.973
139	170141	17	0.973
139	171363	18	5.6042560078004
139	178546	19	7.1825984570892
139	194239	20	5.4682861521439
139	213060	21	1.8290257524816
139	214119	22	1.9327280932289
139	220005	23	1.6004142654101
139	220526	24	1.8203408144852
139	237261	25	0.973
139	246811	26	0.973
139	251102	27	0.973
139	251808	28	1.2076434465795
139	256686	29	3.7672269326612
139	268881	30	5.0570407453447
139	281149	31	5.9598043995204
139	281833	32	7.5607768265322
139	285496	33	4.7557169634943
139	285957	34	1.9606105591277
139	298127	35	1.8018301764292
138	21962	3	1.8335991559294
138	22283	4	2.0445455999859
138	44563	5	1.9275664913235
138	60368	6	1.9833254402108
138	66908	7	0.39400777744507
138	67229	8	-0.008584028319456
138	74135	9	-0.018945083785802
138	91498	10	0.078845379771664
138	114373	11	-0.002546484724153
138	116443	12	-0.024067252182867
138	123549	13	-0.075220698951743
138	124718	14	0.038475068721453
138	147826	15	-0.3057851366346
138	163648	16	-4.4438982839147
138	170141	17	-0.24
138	171363	18	1.8299387331307
138	178546	19	2.0281418557907
138	194239	20	1.2136573507293
138	213060	21	-0.014811691991055
138	214119	22	0.019619963357691
138	220005	23	-0.09047463154886
138	220526	24	-0.015244041080585
138	237261	25	-2.2422040859316
138	246811	26	-4.4634785135114
138	251102	27	-2.25
138	251808	28	-0.075595575890038
138	256686	29	1.9495346801775
138	268881	30	2.064428217283
138	281149	31	1.9696776883071
138	281833	32	2.1269844232313
138	285496	33	0.97784455348127
138	285957	34	0.029650927362963
138	298127	35	-0.023361685385462
85	15436	2	4.0348821161805
85	21962	3	5.8684812721099
85	22283	4	7.9130268720958
85	44563	5	9.8405933634193
85	60368	6	11.82391880363
85	66908	7	12.217926581075
85	67229	8	12.209342552756
85	74135	9	12.19039746897
85	91498	10	12.269242848742
85	114373	11	12.266696364017
85	116443	12	12.242629111835
85	123549	13	12.167408412883
85	124718	14	12.205883481604
85	147826	15	11.90009834497
85	163648	16	7.456200061055
85	170141	17	7.216200061055
85	171363	18	9.0461387941857
85	178546	19	11.074280649976
85	194239	20	12.287938000706
85	213060	21	12.273126308715
85	214119	22	12.292746272072
85	220005	23	12.202271640524
85	220526	24	12.187027599443
85	237261	25	9.9448235135114
85	246811	26	5.481345
85	251102	27	3.231345
85	251808	28	3.15574942411
85	256686	29	5.1052841042874
85	268881	30	7.1697123215704
85	281149	31	9.1393900098775
85	281833	32	11.266374433109
85	285496	33	12.24421898659
85	285957	34	12.273869913953
85	298127	35	12.250508228568
43	3	1	1120.2
43	15436	2	1120.2
43	21962	3	1120.2
43	22283	4	1120.2
43	44563	5	1123.4
43	60368	6	1123.4
43	66908	7	1123.4
43	67229	8	1123.4
43	74135	9	1123.4
43	91498	10	1123.4
43	114373	11	1123.4
43	116443	12	1123.4
43	123549	13	1123.4
43	124718	14	1123.4
43	147826	15	1123.4
43	163648	16	1123.4
43	170141	17	1123.4
43	171363	18	1123.4
43	178546	19	1123.4
43	194239	20	1123.4
43	213060	21	1123.4
43	214119	22	1123.4
43	220005	23	1123.4
43	220526	24	1123.4
43	237261	25	1123.4
43	246811	26	1123.4
43	251102	27	1124.3791099267
43	251808	28	1126.6
43	256686	29	1126.6
43	268881	30	1126.6
43	281149	31	1126.6
43	281833	32	1126.6
43	285496	33	1126.6
43	285957	34	1126.6
43	298127	35	1126.6
42	3	1	1008.4590054334
42	15436	2	1005.3391721682
42	21962	3	1000.364642601
42	22283	4	993.36823615587
42	44563	5	984.4228635405
42	60368	6	973.53154238959
42	66908	7	961.33455883211
42	67229	8	949.11259737964
42	74135	9	936.88772061035
42	91498	10	924.64593863743
42	114373	11	912.41678256376
42	116443	12	900.17468627082
42	123549	13	887.96186890525
42	124718	14	875.74340458543
42	147826	15	863.54937332092
42	163648	16	854.09868548371
42	170141	17	847.62648542266
42	171363	18	839.33497511232
42	178546	19	829.1398830761
42	194239	20	817.23968861179
42	213060	21	805.00933994351
42	214119	22	792.76729634635
42	220005	23	780.56821417459
42	220526	24	768.33380279196
42	237261	25	756.8115617298
42	246811	26	749.32116063242
42	251102	27	745.99044503667
42	251808	28	747.47396980999
42	256686	29	751.73463227258
42	268881	30	757.95502669547
42	281149	31	766.15544813206
42	281833	32	776.42656587247
42	285496	33	788.48474457781
42	285957	34	800.73248876075
42	298127	35	812.96996241736
129	21962	3	4.2656090140466
129	22283	4	5.5052549327294
129	44563	5	6.9384532679481
129	60368	6	7.4491198919679
129	66908	7	8.0048344225993
129	67229	8	4.5475015881383
129	74135	9	1.8069965062069
129	91498	10	1.5641594562241
129	114373	11	0.973
129	116443	12	0.973
129	123549	13	0.973
129	124718	14	1.515833191331
129	147826	15	4.6564826853002
129	163648	16	5.2380731538224
129	170141	17	6.3736251331212
129	171363	18	7.6774096590747
129	178546	19	8.5081068887903
129	194239	20	4.408438903269
129	213060	21	2.2843729937888
129	214119	22	2.1804591723073
129	220005	23	0.973
129	220526	24	0.973
129	237261	25	0.973
129	246811	26	5.9602317496541
129	251102	27	6.3807284568557
129	251808	28	7.4135894284292
129	256686	29	9.4503537684233
129	268881	30	2.7434818877483
129	281149	31	2.2954441506116
129	281833	32	1.9620806676926
129	285496	33	2.1189430654324
129	285957	34	2.3018202027118
129	298127	35	1.7068325766073
129	304243	36	2.1197418288559
129	307239	37	2.1491744059486
129	307900	38	2.1217264186604
129	310743	39	1.9572493939241
129	318275	40	2.3348366071504
129	326240	41	2.2806054801225
128	21962	3	1.8997992767603
128	22283	4	2.0003120320849
128	44563	5	2.107286953344
128	60368	6	1.8990621705726
128	66908	7	1.7727279200824
128	67229	8	0.69028324582736
128	74135	9	-0.083247739437503
128	91498	10	-0.14936657317701
128	114373	11	-4.4884780791248
128	116443	12	-3.3820842460743
128	123549	13	-2.8064668714884
128	124718	14	0.21797152968356
128	147826	15	2.1786826703092
128	163648	16	1.9025110564567
128	170141	17	1.9461893057427
128	171363	18	2.0134026227798
128	178546	19	1.9277298572566
128	194239	20	0.65597739759377
128	213060	21	0.050365591130685
128	214119	22	0.020276030772365
128	220005	23	-2.0684006201119
128	220526	24	-4.4558758976145
128	237261	25	-1.66
128	246811	26	2.1133027559915
128	251102	27	1.8517003845237
128	251808	28	1.8661677127611
128	256686	29	2.1182668478158
128	268881	30	0.18185018687401
128	281149	31	0.052816134882159
128	281833	32	-0.040388635015114
128	285496	33	0.0039946493809104
128	285957	34	0.054017205613199
128	298127	35	-0.11158745223889
128	304243	36	0.0058174555213206
128	307239	37	0.013762762523255
128	307900	38	0.0057783069112336
128	310743	39	-0.039873316448647
128	318275	40	0.065464495352934
128	326240	41	0.048434276992921
80	15436	2	4.292120039142
80	21962	3	6.1919193159023
80	22283	4	8.1922313479872
80	44563	5	10.299518301331
80	60368	6	12.198580471904
80	66908	7	13.971308391986
80	67229	8	14.661591637814
80	74135	9	14.578343898376
80	91498	10	14.428977325199
80	114373	11	9.9404992460743
80	116443	12	6.558415
80	123549	13	3.7519481285116
80	124718	14	3.9699196581952
80	147826	15	6.1486023285044
80	163648	16	8.0511133849611
80	170141	17	9.9973026907038
80	171363	18	12.010705313484
80	178546	19	13.93843517074
80	194239	20	14.594412568334
80	213060	21	14.644778159465
80	214119	22	14.665054190237
80	220005	23	12.596653570125
80	220526	24	8.1407776725108
80	237261	25	6.4807776725108
80	246811	26	8.5940804285023
80	251102	27	10.445780813026
80	251808	28	12.311948525787
80	256686	29	14.430215373603
80	268881	30	14.612065560477
80	281149	31	14.664881695359
80	281833	32	14.624493060344
80	285496	33	14.628487709725
80	285957	34	14.682504915338
80	298127	35	14.570917463099
80	304243	36	14.57673491862
80	307239	37	14.590497681144
80	307900	38	14.596275988055
80	310743	39	14.556402671606
80	318275	40	14.621867166959
80	326240	41	14.670301443952
33	3	1	714.36090442954
33	15436	2	711.98981896019
33	21962	3	705.96016230078
33	22283	4	700.79052913572
33	44563	5	694.21466697519
33	60368	6	686.20691242738
33	66908	7	676.89060105228
33	67229	8	666.60877706673
33	74135	9	656.2967355094
33	91498	10	645.97011511366
33	114373	11	637.51595140927
33	116443	12	632.10505005145
33	123549	13	628.49498558191
33	124718	14	628.23292746794
33	147826	15	631.92349639082
33	163648	16	636.9716853443
33	170141	17	643.44355998644
33	171363	18	651.30956983286
33	178546	19	660.55279119741
33	194239	20	670.81163697564
33	213060	21	681.13641268054
33	214119	22	691.48251417182
33	220005	23	701.41173753908
33	220526	24	708.58094025092
33	237261	25	713.08918700324
33	246811	26	718.53293841409
33	251102	27	724.60812157674
33	251808	28	730.1337538516
33	256686	29	736.19847898257
33	268881	30	742.74265981876
33	281149	31	749.26933478758
33	281833	32	755.80150026113
33	285496	33	762.33155877586
33	285957	34	768.87050701237
33	298127	35	775.40784425229
33	304243	36	781.94191993449
33	307239	37	788.47052886033
33	307900	38	795.0060351986
33	310743	39	801.54359348901
33	318275	40	808.0852248048
33	326240	41	814.63052817426
32	3	1	842.42909557046
32	15436	2	844.80018103981
32	21962	3	846.30983769922
32	22283	4	851.47947086428
32	44563	5	858.05533302481
32	60368	6	866.06308757262
32	66908	7	875.37939894772
32	67229	8	885.66122293327
32	74135	9	895.9732644906
32	91498	10	906.29988488634
32	114373	11	914.75404859073
32	116443	12	920.16494994855
32	123549	13	922.50870113286
32	124718	14	919.49707253206
32	147826	15	915.80650360918
32	163648	16	910.7583146557
32	170141	17	904.28644001356
32	171363	18	896.42043016714
32	178546	19	887.17720880259
32	194239	20	876.91836302436
32	213060	21	866.59358731946
32	214119	22	856.24748582818
32	220005	23	846.31826246092
32	220526	24	839.14905974908
32	237261	25	834.64081299676
32	246811	26	829.06495141366
32	251102	27	821.49361901313
32	251808	28	811.14609471967
32	256686	29	799.02304203486
32	268881	30	785.93468036247
32	281149	31	772.88133042484
32	281833	32	759.81699947773
32	285496	33	746.75688244829
32	285957	34	733.67898597526
32	298127	35	720.60431149542
32	304243	36	707.53616013102
32	307239	37	694.47894227933
32	307900	38	681.40792960281
32	310743	39	668.33281302198
32	318275	40	655.24955039039
32	326240	41	642.15894365148
155	21962	3	3.7542512805479
155	22283	4	5.6017336595182
155	44563	5	6.4345029256312
155	60368	6	7.4678284494497
155	66908	7	8.6568897287371
155	67229	8	0.973
155	74135	9	0.973
155	91498	10	6.1938376247662
155	114373	11	5.308857959933
155	116443	12	2.6857390937346
155	123549	13	7.8669957864044
155	124718	14	8.3606586958734
155	147826	15	3.890306592708
155	163648	16	2.0278857152488
155	170141	17	0.973
155	171363	18	0.973
155	178546	19	0.973
155	194239	20	5.9569675372568
155	213060	21	6.6625804366506
155	214119	22	8.4129711416895
155	220005	23	6.2260409236202
155	220526	24	2.1079280991432
155	237261	25	2.1818878841187
155	246811	26	2.0052967985478
155	251102	27	0.973
155	251808	28	0.973
155	256686	29	0.973
155	268881	30	0.973
155	281149	31	1.3716250982947
155	281833	32	4.5043786042613
155	285496	33	6.2728349045388
155	285957	34	7.572679055126
155	298127	35	8.2884829890589
155	304243	36	4.8318735072014
155	307239	37	2.1891727504401
155	307900	38	1.9730510008008
155	310743	39	1.9762077242492
155	318275	40	2.1297354610765
155	326240	41	2.3161730888293
155	326441	42	2.0870742532618
154	21962	3	1.686208942309
154	22283	4	2.1322453522333
154	44563	5	1.9932716258941
154	60368	6	1.9681415423402
154	66908	7	1.9860903208167
154	67229	8	-3.5536504582596
154	74135	9	-4.4721510006941
154	91498	10	2.3519814213412
154	114373	11	1.5529754709981
154	116443	12	0.40513517446816
154	123549	13	2.0438600748917
154	124718	14	1.8654063443025
154	147826	15	0.51082710210088
154	163648	16	-0.019320480637253
154	170141	17	-2.1064447640573
154	171363	18	-4.4903180778227
154	178546	19	-0.24914223229047
154	194239	20	1.8676811397308
154	213060	21	1.7812985913525
154	214119	22	2.0019187149848
154	220005	23	1.1802154483908
154	220526	24	0.0038546775118444
154	237261	25	0.024195392993279
154	246811	26	-0.025416674413719
154	251102	27	-1.4286124014208
154	251808	28	-4.4308688093338
154	256686	29	-1.174900386283
154	268881	30	-0.95140496926382
154	281149	31	-0.04919313351158
154	281833	32	1.5302020220552
154	285496	33	1.9167281970475
154	285957	34	1.9922518276051
154	298127	35	1.8824881571042
154	304243	36	0.77647641324451
154	307239	37	0.024273182922043
154	307900	38	-0.036066876084078
154	310743	39	-0.034207012306434
154	318275	40	0.0092954545142145
154	326240	41	0.060346213607117
154	326441	42	-0.0045526484982119
93	15436	2	4.0910539485528
93	21962	3	5.7772628908618
93	22283	4	7.9095082430951
93	44563	5	9.9027798689892
93	60368	6	11.870921411329
93	66908	7	13.857011732146
93	67229	8	10.303361273887
93	74135	9	5.8312102731924
93	91498	10	8.1831916945336
93	114373	11	9.7361671655317
93	116443	12	10.14130234
93	123549	13	12.185162414892
93	124718	14	14.050568759194
93	147826	15	14.561395861295
93	163648	16	14.542075380658
93	170141	17	12.4356306166
93	171363	18	7.9453125387776
93	178546	19	7.6961703064872
93	194239	20	9.563851446218
93	213060	21	11.345150037571
93	214119	22	13.347068752555
93	220005	23	14.527284200946
93	220526	24	14.531138878458
93	237261	25	14.555334271451
93	246811	26	14.529917597038
93	251102	27	13.101305195617
93	251808	28	8.670436386283
93	256686	29	7.495536
93	268881	30	6.5441310307362
93	281149	31	6.4949378972246
93	281833	32	8.0251399192798
93	285496	33	9.9418681163272
93	285957	34	11.934119943932
93	298127	35	13.816608101037
93	304243	36	14.593084514281
93	307239	37	14.617357697203
93	307900	38	14.581290821119
93	310743	39	14.547083808813
93	318275	40	14.556379263327
93	326240	41	14.616725476934
93	326441	42	14.612172828436
59	3	1	529.8
59	15436	2	526.6
59	21962	3	526.6
59	22283	4	526.6
59	44563	5	526.6
59	60368	6	526.6
59	66908	7	526.6
59	67229	8	526.6
59	74135	9	526.6
59	91498	10	526.21504414233
59	114373	11	521.66395022942
59	116443	12	512.26183686024
59	123549	13	501.04968718738
59	124718	14	487.85921797503
59	147826	15	473.33437161983
59	163648	16	458.76982190967
59	170141	17	444.83791480292
59	171363	18	434.86953864857
59	178546	19	427.93182491358
59	194239	20	420.30619394615
59	213060	21	410.39688928276
59	214119	22	401.62867239925
59	220005	23	391.54137888083
59	220526	24	381.25906100369
59	237261	25	370.95519183832
59	246811	26	360.65988913146
59	251102	27	350.59033828487
59	251808	28	343.04554232226
59	256686	29	337.9226474803
59	268881	30	332.50597711018
59	281149	31	329.90263888755
59	281833	32	329.8
59	285496	33	329.8
59	285957	34	329.8
59	298127	35	329.8
59	304243	36	329.8
59	307239	37	329.8
59	307900	38	329.8
59	310743	39	329.8
59	318275	40	329.8
59	326240	41	329.8
59	326441	42	329.8
58	3	1	541.57987827161
58	15436	2	544.82376526125
58	21962	3	549.90563430725
58	22283	4	556.88998194468
58	44563	5	565.9478507491
58	60368	6	576.98178668288
58	66908	7	589.95141054264
58	67229	8	602.25298926393
58	74135	9	610.10362973726
58	91498	10	617.29469100366
58	114373	11	624.76162986235
58	116443	12	626.6
58	123549	13	626.6
58	124718	14	626.6
58	147826	15	626.6
58	163648	16	626.6
58	170141	17	626.6
58	171363	18	626.6
58	178546	19	626.20550841717
58	194239	20	622.18760716426
58	213060	21	617.18688928276
58	214119	22	608.41867239925
58	220005	23	598.33137888083
58	220526	24	588.04906100369
58	237261	25	577.74519183832
58	246811	26	567.44988913146
58	251102	27	557.38033828487
58	251808	28	549.83554232226
58	256686	29	544.7126474803
58	268881	30	541.2744710846
58	281149	31	546.36061762432
58	281833	32	553.53707732141
58	285496	33	562.63627097572
58	285957	34	573.6422971974
58	298127	35	586.65616562809
58	304243	36	601.12552310666
58	307239	37	615.68829208437
58	307900	38	630.2552212275
58	310743	39	644.83637946463
58	318275	40	659.40683360503
58	326240	41	673.99702804544
58	326441	42	688.58100372422
115	21962	3	4.1994324458336
115	22283	4	5.1485935617629
115	44563	5	5.6071769922897
115	60368	6	7.0843717899198
115	66908	7	8.5415285715968
115	67229	8	9.9179933639027
115	74135	9	9.599029508875
115	91498	10	3.352465542998
115	114373	11	2.5609671912208
115	116443	12	2.8680468166266
115	123549	13	1.9290853110279
115	124718	14	0.973
115	147826	15	0.973
115	163648	16	0.973
115	170141	17	5.0465772783385
115	171363	18	6.3467332590546
115	178546	19	7.8613606690807
115	194239	20	8.6786808178134
115	213060	21	9.9372962674128
115	214119	22	9.4984994312131
115	220005	23	2.4959433816001
115	220526	24	2.3168378355743
115	237261	25	2.538489743795
115	246811	26	2.4684228176975
115	251102	27	2.3406936167671
115	251808	28	0.973
115	256686	29	0.973
115	268881	30	0.973
115	281149	31	6.5212278676827
115	281833	32	6.3063238314419
115	285496	33	3.3850588043982
115	285957	34	7.5959893835203
115	298127	35	8.8146492119222
115	304243	36	9.9244974346814
115	307239	37	6.3304458261447
115	307900	38	2.4578334846969
115	310743	39	2.2334048318403
115	318275	40	2.8245739590907
115	326240	41	2.2965384697558
115	326441	42	2.4263639817537
115	329238	43	2.2851312275915
115	329601	44	2.8221196134177
114	21962	3	1.9488014694792
114	22283	4	1.913322959654
114	44563	5	1.7170509184617
114	60368	6	1.9108210201398
114	66908	7	2.0166577689
114	67229	8	2.0583974936395
114	74135	9	1.7251833469211
114	91498	10	0.21483241277452
114	114373	11	0.026130559579471
114	116443	12	0.095357641347217
114	123549	13	-0.12292726512067
114	124718	14	-3.315046124536
114	147826	15	-4.4796522893779
114	163648	16	-3.79
114	170141	17	1.8773687563427
114	171363	18	1.9886606298946
114	178546	19	2.1058579054615
114	194239	20	1.9917623623158
114	213060	21	2.0108477635705
114	214119	22	1.6664457650295
114	220005	23	0.0094949112343592
114	220526	24	-0.031905857338568
114	237261	25	0.019946160600519
114	246811	26	0.0032638925383814
114	251102	27	-0.026166005507111
114	251808	28	-3.659453940952
114	256686	29	-4.5
114	268881	30	-3.08
114	281149	31	2.3689487780631
114	281833	32	1.8187895419868
114	285496	33	0.60580063960402
114	285957	34	1.8237427659705
114	298127	35	1.8803787900996
114	304243	36	1.8886948033236
114	307239	37	0.91398228735937
114	307900	38	-0.00032800106331621
114	310743	39	-0.051834454366471
114	318275	40	0.08504917750135
114	326240	41	-0.038261866432148
114	326441	42	-0.0073710446851329
114	329238	43	-0.039580718060026
114	329601	44	0.08449689010391
73	15436	2	3.9793318004404
73	21962	3	5.9281332699197
73	22283	4	7.8414562295737
73	44563	5	9.5585071480354
73	60368	6	11.469328168175
73	66908	7	13.485985937075
73	67229	8	15.544383430715
73	74135	9	17.269566777636
73	91498	10	17.48439919041
73	114373	11	17.51052974999
73	116443	12	17.605887391337
73	123549	13	17.482960126216
73	124718	14	14.16791400168
73	147826	15	9.6882617123026
73	163648	16	5.8982617123026
73	170141	17	7.7756304686453
73	171363	18	9.7642910985398
73	178546	19	11.870149004001
73	194239	20	13.861911366317
73	213060	21	15.872759129888
73	214119	22	17.539204894917
73	220005	23	17.548699806151
73	220526	24	17.516793948813
73	237261	25	17.536740109413
73	246811	26	17.540004001952
73	251102	27	17.513837996445
73	251808	28	13.854384055493
73	256686	29	9.3543840554927
73	268881	30	6.2743840554927
73	281149	31	8.6433328335557
73	281833	32	10.462122375542
73	285496	33	11.067923015147
73	285957	34	12.891665781117
73	298127	35	14.772044571217
73	304243	36	16.66073937454
73	307239	37	17.5747216619
73	307900	38	17.574393660836
73	310743	39	17.52255920647
73	318275	40	17.607608383971
73	326240	41	17.569346517539
73	326441	42	17.561975472854
73	329238	43	17.522394754794
73	329601	44	17.606891644898
19	3	1	929.8
19	15436	2	929.8
19	21962	3	929.8
19	22283	4	929.8
19	44563	5	929.8
19	60368	6	929.8
19	66908	7	929.8
19	67229	8	929.8
19	74135	9	929.8
19	91498	10	929.8
19	114373	11	929.8
19	116443	12	929.8
19	123549	13	929.8
19	124718	14	929.8
19	147826	15	930.40756208188
19	163648	16	934.68609145829
19	170141	17	940.3896178042
19	171363	18	946.89128761371
19	178546	19	956.67089372945
19	194239	20	968.3262755383
19	213060	21	981.7422243485
19	214119	22	996.90863759628
19	220005	23	1012.5868621451
19	220526	24	1028.2706487709
19	237261	25	1043.9529611036
19	246811	26	1059.6673533631
19	251102	27	1075.3528526314
19	251808	28	1089.5104527909
19	256686	29	1099.688272036
19	268881	30	1106.0317615062
19	281149	31	1112.3276994087
19	281833	32	1115.804706122
19	285496	33	1109.2593120595
19	285957	34	1098.5555730053
19	298127	35	1086.0930669654
19	304243	36	1071.991967916
19	307239	37	1056.4275509786
19	307900	38	1040.7392316951
19	310743	39	1025.0420300911
19	318275	40	1009.3526311449
19	326240	41	993.65196285156
19	326441	42	977.95422469858
19	329238	43	962.27975490101
19	329601	44	946.58543213306
18	3	1	1341.6067530957
18	15436	2	1344.7548281147
18	21962	3	1349.8960094089
18	22283	4	1356.8701435105
18	44563	5	1365.5809778722
18	60368	6	1376.1696905214
18	66908	7	1388.7252975201
18	67229	8	1403.3296677093
18	74135	9	1419.8169003736
18	91498	10	1437.3399474319
18	114373	11	1454.8650483057
18	116443	12	1472.4028200595
18	123549	13	1489.9442856805
18	124718	14	1506.0424594374
18	147826	15	1517.6891536839
18	163648	16	1523.4336793466
18	170141	17	1527.2638308692
18	171363	18	1534.1556438069
18	178546	19	1539.0454468647
18	194239	20	1544.8731377691
18	213060	21	1551.5811121742
18	214119	22	1559.1643187981
18	220005	23	1567.0034310725
18	220526	24	1574.8453243854
18	237261	25	1582.6864805518
18	246811	26	1590.5436766815
18	251102	27	1598.3864263157
18	251808	28	1605.4652263955
18	256686	29	1610.554136018
18	268881	30	1613.7258807531
18	281149	31	1617.9333204307
18	281833	32	1626.2526415313
18	285496	33	1634.5492838791
18	285957	34	1640.0122134974
18	298127	35	1646.2434665173
18	304243	36	1653.294016042
18	307239	37	1661.0762245107
18	307900	38	1668.9203841524
18	310743	39	1676.7689849545
18	318275	40	1684.6136844275
18	326240	41	1692.4640185742
18	326441	42	1700.3128876507
18	329238	43	1708.1501225495
18	329601	44	1715.9972839335
103	21962	3	3.8706749015538
103	22283	4	5.1609363358786
103	44563	5	5.5313718767528
103	60368	6	6.7838146005104
103	66908	7	8.178784130273
103	67229	8	4.8157741473214
103	74135	9	1.9449368193377
103	91498	10	2.1238767944388
103	114373	11	1.8056469303999
103	116443	12	2.1561230563811
103	123549	13	2.0477558158067
103	124718	14	2.0187127433038
103	147826	15	1.8758451696775
103	163648	16	2.190058560236
103	170141	17	1.9835059489153
103	171363	18	0.973
103	178546	19	0.973
103	194239	20	6.0525399217721
103	213060	21	4.6053558252695
103	214119	22	0.973
103	220005	23	6.4884263522727
103	220526	24	7.4144146408897
103	237261	25	8.6236746522002
103	246811	26	4.3069129473297
103	251102	27	0.973
103	251808	28	0.973
103	256686	29	4.664077095068
103	268881	30	6.6424106213566
103	281149	31	7.4688953810316
103	281833	32	8.2316438415073
103	285496	33	2.9531665906862
103	285957	34	2.457364933497
103	298127	35	0.973
103	304243	36	0.973
103	307239	37	6.877163498151
103	307900	38	7.1321990915022
103	310743	39	7.6558311392229
103	318275	40	6.1515470282945
103	326240	41	2.0787933830001
103	326441	42	2.3758774538564
103	329238	43	1.7278693682498
103	329601	44	2.2486231146484
103	337397	45	0.973
103	341530	46	1.8935190460643
103	343645	47	1.8935190460643
102	21962	3	1.7439410576015
102	22283	4	1.9349832218373
102	44563	5	1.6991680262424
102	60368	6	1.8309035775042
102	66908	7	1.9441059654509
102	67229	8	0.81611584318528
102	74135	9	-0.029216255054344
102	91498	10	0.022900528470055
102	114373	11	-0.069179652684834
102	116443	12	0.03357524811523
102	123549	13	0.0014938060217542
102	124718	14	-0.0068851950881079
102	147826	15	-0.047847583766561
102	163648	16	0.043919748447371
102	170141	17	-0.016695209622849
102	171363	18	-4.1602215337473
102	178546	19	-3.08
102	194239	20	2.0856808126764
102	213060	21	1.2029786415198
102	214119	22	-3.0530752550447
102	220005	23	2.1934734539641
102	220526	24	2.0720964268269
102	237261	25	2.0687817747891
102	246811	26	0.67134976096903
102	251102	27	-3.4367348444869
102	251808	28	-4.4954484949736
102	256686	29	1.6779538565641
102	268881	30	2.0931955811591
102	281149	31	1.9771314249118
102	281833	32	1.8831226325501
102	285496	33	0.27187680955017
102	285957	34	0.12004580528708
102	298127	35	-3.22123692821
102	304243	36	-4.5
102	307239	37	2.4726463993383
102	307900	38	2.0467246829346
102	310743	39	1.8650778888864
102	318275	40	1.2205819523799
102	326240	41	0.011904045871924
102	326441	42	0.096364827512298
102	329238	43	-0.092218398873229
102	329601	44	0.060016174812334
102	337397	45	-1.5610897966726
102	341530	46	0
102	343645	47	0
67	15436	2	4.1087391728456
67	21962	3	5.8526802304471
67	22283	4	7.7876634522844
67	44563	5	9.4868314785268
67	60368	6	11.317735056031
67	66908	7	13.261841021482
67	67229	8	14.077956864667
67	74135	9	14.048740609613
67	91498	10	14.071641138083
67	114373	11	14.002461485398
67	116443	12	14.036036733513
67	123549	13	14.037530539535
67	124718	14	14.030645344447
67	147826	15	13.98279776068
67	163648	16	14.026717509128
67	170141	17	14.010022299505
67	171363	18	9.8498007657576
67	178546	19	6.7698007657576
67	194239	20	8.855481578434
67	213060	21	10.058460219954
67	214119	22	7.0053849649091
67	220005	23	9.1988584188732
67	220526	24	11.2709548457
67	237261	25	13.339736620489
67	246811	26	14.011086381458
67	251102	27	10.574351536971
67	251808	28	6.0789030419978
67	256686	29	7.7568568985619
67	268881	30	9.850052479721
67	281149	31	11.827183904633
67	281833	32	13.710306537183
67	285496	33	13.982183346733
67	285957	34	14.10222915202
67	298127	35	10.88099222381
67	304243	36	6.38099222381
67	307239	37	8.8536386231483
67	307900	38	10.900363306083
67	310743	39	12.765441194969
67	318275	40	13.986023147349
67	326240	41	13.997927193221
67	326441	42	14.094292020733
67	329238	43	14.00207362186
67	329601	44	14.062089796673
67	337397	45	12.501
67	341530	46	12.501
67	343645	47	12.501
7	3	1	1236.1947677444
7	15436	2	1239.0414895314
7	21962	3	1243.5705031409
7	22283	4	1249.7764083423
7	44563	5	1256.1104720366
7	60368	6	1265.5089623136
7	66908	7	1276.6232242875
7	67229	8	1289.062376002
7	74135	9	1301.6256818817
7	91498	10	1314.1793313413
7	114373	11	1326.7329926667
7	116443	12	1339.2977523156
7	123549	13	1351.841431191
7	124718	14	1364.3783923734
7	147826	15	1376.9272378761
7	163648	16	1389.4817245047
7	170141	17	1402.0365780641
7	171363	18	1412.6346630197
7	178546	19	1419.3948831035
7	194239	20	1423.9152914286
7	213060	21	1426.0579340261
7	214119	22	1426.4636039799
7	220005	23	1426.6
7	220526	24	1429.8
7	237261	25	1429.8
7	246811	26	1429.8
7	251102	27	1429.8
7	251808	28	1429.8
7	256686	29	1429.8
7	268881	30	1429.8
7	281149	31	1429.8
7	281833	32	1429.8
7	285496	33	1429.8
7	285957	34	1429.8
7	298127	35	1429.8
7	304243	36	1429.8
7	307239	37	1429.9381843058
7	307900	38	1430.7863655301
7	310743	39	1434.6056647329
7	318275	40	1443.9804979138
7	326240	41	1453.8976884536
7	326441	42	1463.8279649537
7	329238	43	1473.7555204702
7	329601	44	1483.691592498
7	337397	45	1492.6712802702
7	341530	46	1501.5107311622
7	343645	47	1510.3501820542
6	3	1	1025.2323838722
6	15436	2	1026.6557447657
6	21962	3	1028.9202515704
6	22283	4	1032.0232041711
6	44563	5	1038.7652360183
6	60368	6	1043.4644811568
6	66908	7	1049.0216121437
6	67229	8	1055.241188001
6	74135	9	1061.5228409409
6	91498	10	1067.7996656706
6	114373	11	1074.0764963334
6	116443	12	1080.3588761578
6	123549	13	1086.6307155955
6	124718	14	1092.8991961867
6	147826	15	1099.173618938
6	163648	16	1105.4508622523
6	170141	17	1111.7282890321
6	171363	18	1117.0273315099
6	178546	19	1120.4595644413
6	194239	20	1126.8572064879
6	213060	21	1136.3931787209
6	214119	22	1144.1932987625
6	220005	23	1152.5090943419
6	220526	24	1162.7727712324
6	237261	25	1175.1912679974
6	246811	26	1189.1567423614
6	251102	27	1201.6803943476
6	251808	28	1209.7842973895
6	256686	29	1216.5448544806
6	268881	30	1225.3836008119
6	281149	31	1236.290087562
6	281833	32	1249.2022400682
6	285496	33	1263.2249552483
6	285957	34	1277.2568070437
6	298127	35	1289.9944005058
6	304243	36	1298.4003927296
6	307239	37	1306.174607645
6	307900	38	1316.0754346914
6	310743	39	1327.2567009678
6	318275	40	1337.1904979138
6	326240	41	1347.1076884536
6	326441	42	1357.0379649537
6	329238	43	1366.9655204702
6	329601	44	1376.901592498
6	337397	45	1385.8812802702
6	341530	46	1394.7207311622
6	343645	47	1403.5601820542
97	21962	3	4.2872170979281
97	22283	4	5.3586192538899
97	44563	5	5.9422746970004
97	60368	6	7.9369529708112
97	66908	7	8.6530011684976
97	67229	8	0.973
97	74135	9	0.973
97	91498	10	3.9738693164658
97	114373	11	1.3908919748241
97	116443	12	5.4232969220237
97	123549	13	6.5840185350196
97	124718	14	7.8803384010386
97	147826	15	8.6096782823324
97	163648	16	5.5949906052619
97	170141	17	1.7343911476325
97	171363	18	2.268744369468
97	178546	19	2.525730613591
97	194239	20	1.9424161039206
97	213060	21	2.4437214491669
97	214119	22	1.7632369147429
97	220005	23	0.973
97	220526	24	0.973
97	237261	25	3.7034500801588
97	246811	26	8.1418258082756
97	251102	27	8.6100080074255
97	251808	28	1.8935190460643
97	256686	29	1.8935190460643
97	268881	30	1.8935190460643
97	281149	31	0.973
97	281833	32	0.973
97	285496	33	0.973
97	285957	34	7.8027893699824
97	298127	35	9.6463859133861
97	304243	36	2.2304014018838
97	307239	37	1.8935190460643
97	307900	38	1.8935190460643
97	310743	39	1.8935190460643
97	318275	40	1.8935190460643
97	326240	41	1.8935190460643
97	326441	42	1.8935190460643
97	329238	43	1.8935190460643
97	329601	44	1.8935190460643
97	337397	45	1.8935190460643
97	341530	46	1.8935190460643
97	343645	47	1.8935190460643
97	343990	48	1.8935190460643
97	346057	49	1.8935190460643
96	21962	3	1.966985841773
96	22283	4	1.9738529847632
96	44563	5	1.8042148443125
96	60368	6	2.1176814072602
96	66908	7	1.974909677878
96	67229	8	-3.6193132953048
96	74135	9	-4.4896533254211
96	91498	10	1.4235250272957
96	114373	11	-0.057374962316826
96	116443	12	1.7705444144667
96	123549	13	1.85809932512
96	124718	14	1.9421645442583
96	147826	15	1.8505870507495
96	163648	16	0.90822830405157
96	170141	17	-0.12236760335276
96	171363	18	0.021123772070277
96	178546	19	0.087184495336841
96	194239	20	-0.067322910777293
96	213060	21	0.065284259861802
96	214119	22	-0.11439600286259
96	220005	23	-4.3795947219536
96	220526	24	-4.5
96	237261	25	1.18
96	246811	26	2.6
96	251102	27	2.2293615552619
96	251808	28	0
96	256686	29	0
96	268881	30	0
96	281149	31	-0.57181922236909
96	281833	32	-4.5
96	285496	33	-0.24
96	285957	34	2.6
96	298127	35	2.6
96	304243	36	0.11181922236909
96	307239	37	0
96	307900	38	0
96	310743	39	0
96	318275	40	0
96	326240	41	0
96	326441	42	0
96	329238	43	0
96	329601	44	0
96	337397	45	0
96	341530	46	0
96	343645	47	0
96	343990	48	0
96	346057	49	0
64	15436	2	4.0772753175295
64	21962	3	6.0442611593025
64	22283	4	8.0181141440657
64	44563	5	9.8223289883782
64	60368	6	11.940010395638
64	66908	7	13.914920073516
64	67229	8	10.295606778212
64	74135	9	5.8059534527906
64	91498	10	7.2294784800863
64	114373	11	7.1721035177695
64	116443	12	8.9426479322362
64	123549	13	10.800747257356
64	124718	14	12.742911801614
64	147826	15	14.593498852364
64	163648	16	15.501727156415
64	170141	17	15.379359553063
64	171363	18	15.400483325133
64	178546	19	15.48766782047
64	194239	20	15.420344909693
64	213060	21	15.485629169554
64	214119	22	15.371233166692
64	220005	23	10.991638444738
64	220526	24	6.4916384447381
64	237261	25	7.6716384447381
64	246811	26	10.271638444738
64	251102	27	12.501
64	251808	28	12.501
64	256686	29	12.501
64	268881	30	12.501
64	281149	31	11.929180777631
64	281833	32	7.4291807776309
64	285496	33	7.1891807776309
64	285957	34	9.7891807776309
64	298127	35	12.389180777631
64	304243	36	12.501
64	307239	37	12.501
64	307900	38	12.501
64	310743	39	12.501
64	318275	40	12.501
64	326240	41	12.501
64	326441	42	12.501
64	329238	43	12.501
64	329601	44	12.501
64	337397	45	12.501
64	341530	46	12.501
64	343645	47	12.501
64	343990	48	12.501
64	346057	49	12.501
1	3	1	1020.2
1	15436	2	1020.2
1	21962	3	1020.2
1	22283	4	1020.2
1	44563	5	1020.2
[...]
118	434163	269	-0.043227221339475
118	434214	270	-0.024072662766558
118	434240	271	0.0017599740740852
75	15436	2	4.0354242860583
75	21962	3	5.9589900263689
75	22283	4	7.8837399134912
75	44563	5	9.8342143524821
75	60368	6	11.838381837212
75	66908	7	13.086329839447
75	67229	8	13.075973839188
75	74135	9	13.00161146982
75	91498	10	13.055541760706
75	114373	11	13.081656261304
75	116443	12	13.065249722587
75	123549	13	13.075310859625
75	124718	14	13.127007262505
75	147826	15	13.044799488339
75	163648	16	13.045885457768
75	170141	17	13.018500060955
75	171363	18	13.105553080979
75	178546	19	13.069245130998
75	194239	20	13.036293691468
75	213060	21	13.039743260107
75	214119	22	13.045332154668
75	220005	23	13.074933874855
75	220526	24	13.071329521559
75	237261	25	13.066143913496
75	246811	26	13.060094637152
75	251102	27	13.064942177414
75	251808	28	9.8477059129244
75	256686	29	6.7694550489156
75	268881	30	8.8333147349429
75	281149	31	10.046397279158
75	281833	32	7.021950709541
75	285496	33	9.3523266535375
75	285957	34	11.402723892676
75	298127	35	13.1209379717
75	304243	36	13.013468740216
75	307239	37	10.905844068782
75	307900	38	6.405844068782
75	310743	39	7.4640837629801
75	318275	40	9.4311806388256
75	326240	41	11.39479938595
75	326441	42	13.024077628449
75	329238	43	13.005330084482
75	329601	44	13.114331454422
75	337397	45	12.359679059078
75	341530	46	7.8596790590776
75	343645	47	8.276199188599
75	343990	48	10.138080181827
75	346057	49	12.211716705985
75	350820	50	13.022964075868
75	355619	51	13.080282614819
75	355922	52	13.044030095445
75	357589	53	13.124127122598
75	358201	54	13.067868261033
75	363733	55	13.035647841495
75	366542	56	13.001451962934
75	368340	57	9.9797544155582
75	368581	58	5.4949424391403
75	370263	59	7.7743551806943
75	374213	60	9.7748265525862
75	378123	61	11.703629150437
75	378264	62	13.090791427352
75	379744	63	13.030950856818
75	379875	64	13.055372972687
75	384180	65	13.016229124634
75	386659	66	13.044876826125
75	387662	67	13.123992529985
75	387869	68	13.020783511241
75	388757	69	13.077337439245
75	390301	70	13.001653527728
75	392634	71	13.054396329914
75	392735	72	13.114440964501
75	393465	73	13.115517461019
75	393629	74	13.120175749563
75	395500	75	8.9983046701001
75	397168	76	7.3530034668252
75	398006	77	7.1245403052679
75	398216	78	7.1650297148105
75	398926	79	9.1906458928155
75	400312	80	11.238340245446
75	402084	81	13.1123001105
75	402176	82	11.058965159272
75	402842	83	7.917191017713
75	403032	84	5.0772157178853
75	404804	85	2.8914802724881
75	406032	86	1.4757413099269
75	406692	87	0.58705237457236
75	406892	88	0.22580961350398
75	407609	89	0.080259981331889
75	408840	90	0.028888282395343
75	410489	91	0.0098808820615802
75	410636	92	0.0036299286075816
75	411234	93	0.0012882827550044
75	411381	94	0.00048066407612218
75	413188	95	0.00016958510363742
75	413970	96	5.9708851470245e-005
75	414565	97	2.1713293558234e-005
75	414646	98	0
75	415140	99	0
75	416024	100	0
75	417220	101	0
75	417349	102	0
75	417785	103	0
75	417856	104	0
75	419066	105	0
75	419615	106	0
75	420054	107	0
75	420169	108	0
75	420564	109	0
75	421397	110	0
75	422361	111	0
75	422432	112	0
75	422737	113	0
75	422838	114	0
75	423572	115	0
75	424216	116	0
75	424520	117	0
75	424581	118	0
75	424811	119	0
75	425278	120	0
75	425777	121	0
75	425828	122	0
75	426058	123	0
75	426100	124	0
75	426586	125	0
75	426718	126	0
75	426825	127	0
75	426856	128	0
75	426963	129	0
75	427255	130	0
75	427362	131	0
75	427393	132	0
75	427500	133	0
75	427579	134	0
75	427947	135	0
75	428026	136	0
75	428133	137	0.6193720101208
75	428164	138	2.4818457392062
75	428296	139	4.4106222058335
75	428588	140	0.15961685747724
75	428695	141	0
75	428750	142	0
75	428857	143	0
75	428888	144	0
75	429286	145	0
75	429317	146	0
75	429424	147	0
75	429455	148	0
75	429586	149	0
75	429742	150	0
75	429804	151	0
75	429825	152	0
75	429887	153	0
75	429908	154	0
75	430086	155	0
75	430107	156	0
75	430169	157	0
75	430190	158	0
75	430252	159	0
75	430389	160	0
75	430451	161	0
75	430472	162	0
75	430534	163	0
75	430555	164	0
75	430733	165	0
75	430773	166	0
75	430835	167	0
75	430875	168	0
75	430937	169	0
75	431074	170	0
75	431136	171	0
75	431157	172	0
75	431219	173	0
75	431240	174	0
75	431418	175	0
75	431439	176	0
75	431501	177	0
75	431522	178	0
75	431584	179	0
75	431721	180	0
75	431783	181	0
75	431804	182	0
75	431866	183	0
75	431877	184	0
75	431943	185	0
75	431954	186	0
75	431980	187	0
75	431991	188	0
75	432017	189	0
75	432068	190	0
75	432094	191	0
75	432105	192	0
75	432131	193	0
75	432142	194	0
75	432208	195	0
75	432219	196	0
75	432245	197	0
75	432256	198	0
75	432282	199	0
75	432333	200	0
75	432359	201	0
75	432370	202	0
75	432396	203	0
75	432407	204	0
75	432473	205	0
75	432484	206	0
75	432510	207	0
75	432521	208	0
75	432547	209	0
75	432598	210	0
75	432624	211	0
75	432635	212	0
75	432661	213	0
75	432672	214	0
75	432738	215	0
75	432749	216	0
75	432775	217	0
75	432786	218	0
75	432812	219	0
75	432863	220	0
75	432889	221	0
75	432900	222	0
75	432926	223	0
75	432937	224	0
75	433003	225	0
75	433014	226	0
75	433040	227	0
75	433051	228	0
75	433077	229	0
75	433128	230	0
75	433154	231	0
75	433165	232	0
75	433191	233	0
75	433202	234	0
75	433268	235	0
75	433279	236	0
75	433305	237	0
75	433316	238	0
75	433342	239	0
75	433393	240	0
75	433419	241	0
75	433430	242	0
75	433456	243	0
75	433467	244	0
75	433533	245	0
75	433544	246	0
75	433570	247	0
75	433581	248	0
75	433607	249	0
75	433658	250	0
75	433684	251	0
75	433695	252	0
75	433721	253	0
75	433732	254	1.82
75	433798	255	3.7367213652167
75	433822	256	5.6859746427997
75	433848	257	7.3554047456633
75	433872	258	9.3168450398666
75	433898	259	11.405799562199
75	433949	260	13.012204264385
75	433975	261	13.049230913169
75	433986	262	13.031452354357
75	434012	263	13.072323520054
75	434023	264	13.08955265473
75	434089	265	13.007210534272
75	434100	266	13.068392162147
75	434126	267	13.059875256018
75	434137	268	13.127358438311
75	434163	269	13.084131216971
75	434214	270	13.060058554205
75	434240	271	13.061818528279
23	3	1	1148.5195601216
23	15436	2	1150.7568944404
23	21962	3	1154.3911260172
23	22283	4	1159.3910749396
23	44563	5	1165.7253123665
23	60368	6	1173.4661569084
23	66908	7	1180.2649114102
23	67229	8	1189.5227839033
23	74135	9	1198.7568159242
23	91498	10	1207.9853874074
23	114373	11	1216.9090543702
23	116443	12	1226.9886394322
23	123549	13	1238.6127163876
23	124718	14	1250.2931235929
23	147826	15	1261.9624394741
23	163648	16	1273.6540094355
23	170141	17	1285.3128774453
23	171363	18	1296.993042857
23	178546	19	1308.6858029981
23	194239	20	1320.3486200238
23	213060	21	1332.028388308
23	214119	22	1343.7013821214
23	220005	23	1355.3850963525
23	220526	24	1367.0674263483
23	237261	25	1378.7476215722
23	246811	26	1390.4465290956
23	251102	27	1402.1147012681
23	251808	28	1412.6338104732
23	256686	29	1419.3939384426
23	268881	30	1423.9191560479
23	281149	31	1426.0523221713
23	281833	32	1426.4626445449
23	285496	33	1426.6
23	285957	34	1429.8
23	298127	35	1429.8
23	304243	36	1429.8
23	307239	37	1429.8
23	307900	38	1429.8
23	310743	39	1429.8
23	318275	40	1429.8
23	326240	41	1429.8
23	326441	42	1429.8
23	329238	43	1429.8
23	329601	44	1429.8
23	337397	45	1429.8
23	341530	46	1429.8
23	343645	47	1429.8313910951
23	343990	48	1430.2987284557
23	346057	49	1432.7360046729
23	350820	50	1438.3960380852
23	355619	51	1447.6294084686
23	355922	52	1456.8731091675
23	357589	53	1466.1159963664
23	358201	54	1475.3487035403
23	363733	55	1484.5769743469
23	366542	56	1493.8022536057
23	368340	57	1502.1763368486
23	368581	58	1507.4875742419
23	370263	59	1512.2351066624
23	374213	60	1518.1222989204
23	378123	61	1523.903389591
23	378264	62	1526.6
23	379744	63	1526.6
23	379875	64	1529.8
23	384180	65	1529.8
23	386659	66	1529.8
23	387662	67	1529.8
23	387869	68	1529.8
23	388757	69	1529.8
23	390301	70	1529.8
23	392634	71	1529.8
23	392735	72	1529.8
23	393465	73	1529.8
23	393629	74	1529.8
23	395500	75	1529.8
23	397168	76	1529.8
23	398006	77	1532.9360238485
23	398216	78	1539.9584364428
23	398926	79	1548.2285870036
23	400312	80	1558.5828851732
23	402084	81	1570.8419902524
23	402176	82	1583.163314939
23	402842	83	1592.425305637
23	403032	84	1598.7395124949
23	404804	85	1602.6149825294
23	406032	86	1604.677773229
23	406692	87	1605.6077547929
23	406892	88	1605.9767496021
23	407609	89	1606.1087084363
23	408840	90	1606.155968648
23	410489	91	1606.1726610986
23	410636	92	1606.1786250959
23	411234	93	1606.1807818396
23	411381	94	1606.1815667141
23	413188	95	1606.1818430281
23	413970	96	1606.1819431679
23	414565	97	1606.1819795394
23	414646	98	1606.1819898701
23	415140	99	1606.1819898701
23	416024	100	1606.1819898701
23	417220	101	1606.1819898701
23	417349	102	1606.1819898701
23	417785	103	1606.1819898701
23	417856	104	1606.1819898701
23	419066	105	1606.1819898701
23	419615	106	1606.1819898701
23	420054	107	1606.1819898701
23	420169	108	1606.1819898701
23	420564	109	1606.1819898701
23	421397	110	1606.1819898701
23	422361	111	1606.1819898701
23	422432	112	1606.1819898701
23	422737	113	1606.1819898701
23	422838	114	1606.1819898701
23	423572	115	1606.1819898701
23	424216	116	1606.1819898701
23	424520	117	1606.1819898701
23	424581	118	1606.1819898701
23	424811	119	1606.1819898701
23	425278	120	1606.1819898701
23	425777	121	1606.1819898701
23	425828	122	1606.1819898701
23	426058	123	1606.1819898701
23	426100	124	1606.1819898701
23	426586	125	1606.1819898701
23	426718	126	1606.1819898701
23	426825	127	1606.1819898701
23	426856	128	1606.1819898701
23	426963	129	1606.1819898701
23	427255	130	1606.1819898701
23	427362	131	1606.1819898701
23	427393	132	1606.1819898701
23	427500	133	1606.1819898701
23	427579	134	1606.1819898701
23	427947	135	1606.1819898701
23	428026	136	1606.1819898701
23	428133	137	1606.3464608338
23	428164	138	1607.9769116402
23	428296	139	1611.4476255405
23	428588	140	1613.5986851464
23	428695	141	1613.6406468322
23	428750	142	1613.6406468322
23	428857	143	1613.6406468322
23	428888	144	1613.6406468322
23	429286	145	1613.6406468322
23	429317	146	1613.6406468322
23	429424	147	1613.6406468322
23	429455	148	1613.6406468322
23	429586	149	1613.6406468322
23	429742	150	1613.6406468322
23	429804	151	1613.6406468322
23	429825	152	1613.6406468322
23	429887	153	1613.6406468322
23	429908	154	1613.6406468322
23	430086	155	1613.6406468322
23	430107	156	1613.6406468322
23	430169	157	1613.6406468322
23	430190	158	1613.6406468322
23	430252	159	1613.6406468322
23	430389	160	1613.6406468322
23	430451	161	1613.6406468322
23	430472	162	1613.6406468322
23	430534	163	1613.6406468322
23	430555	164	1613.6406468322
23	430733	165	1613.6406468322
23	430773	166	1613.6406468322
23	430835	167	1613.6406468322
23	430875	168	1613.6406468322
23	430937	169	1613.6406468322
23	431074	170	1613.6406468322
23	431136	171	1613.6406468322
23	431157	172	1613.6406468322
23	431219	173	1613.6406468322
23	431240	174	1613.6406468322
23	431418	175	1613.6406468322
23	431439	176	1613.6406468322
23	431501	177	1613.6406468322
23	431522	178	1613.6406468322
23	431584	179	1613.6406468322
23	431721	180	1613.6406468322
23	431783	181	1613.6406468322
23	431804	182	1613.6406468322
23	431866	183	1613.6406468322
23	431877	184	1613.6406468322
23	431943	185	1613.7246468322
23	431954	186	1613.7246468322
23	431980	187	1613.7506468322
23	431991	188	1613.7506468322
23	432017	189	1613.7506468322
23	432068	190	1613.7506468322
23	432094	191	1613.7506468322
23	432105	192	1613.7506468322
23	432131	193	1613.7506468322
23	432142	194	1613.7506468322
23	432208	195	1613.7506468322
23	432219	196	1613.7506468322
23	432245	197	1613.7506468322
23	432256	198	1613.7506468322
23	432282	199	1613.7506468322
23	432333	200	1613.7506468322
23	432359	201	1613.7506468322
23	432370	202	1613.7506468322
23	432396	203	1613.7506468322
23	432407	204	1613.7506468322
23	432473	205	1613.7506468322
23	432484	206	1613.7506468322
23	432510	207	1613.7506468322
23	432521	208	1613.7506468322
23	432547	209	1613.7506468322
23	432598	210	1613.7766468322
23	432624	211	1613.7766468322
23	432635	212	1613.7766468322
23	432661	213	1613.7766468322
23	432672	214	1613.7766468322
23	432738	215	1613.7766468322
23	432749	216	1613.7766468322
23	432775	217	1613.7766468322
23	432786	218	1613.7766468322
23	432812	219	1613.7766468322
23	432863	220	1613.7766468322
23	432889	221	1613.7766468322
23	432900	222	1613.7766468322
23	432926	223	1613.7766468322
23	432937	224	1613.7766468322
23	433003	225	1613.7766468322
23	433014	226	1613.7766468322
23	433040	227	1613.7766468322
23	433051	228	1613.7766468322
23	433077	229	1613.7766468322
23	433128	230	1613.7766468322
23	433154	231	1613.7766468322
23	433165	232	1613.7766468322
23	433191	233	1613.7766468322
23	433202	234	1613.7766468322
23	433268	235	1613.7766468322
23	433279	236	1613.7766468322
23	433305	237	1613.7766468322
23	433316	238	1613.7766468322
23	433342	239	1613.7766468322
23	433393	240	1613.7766468322
23	433419	241	1613.7766468322
23	433430	242	1613.7766468322
23	433456	243	1613.7766468322
23	433467	244	1613.7766468322
23	433533	245	1613.7766468322
23	433544	246	1613.7766468322
23	433570	247	1613.7766468322
23	433581	248	1613.7766468322
23	433607	249	1613.7766468322
23	433658	250	1613.7766468322
23	433684	251	1613.7766468322
23	433695	252	1613.7766468322
23	433721	253	1613.7766468322
23	433732	254	1614.5046468322
23	433798	255	1617.3535682357
23	433822	256	1619.9922636284
23	433848	257	1620.2
23	433872	258	1620.2
23	433898	259	1620.2
23	433949	260	1620.2
23	433975	261	1620.2
23	433986	262	1620.2
23	434012	263	1620.2
23	434023	264	1620.2
23	434089	265	1620.2
23	434100	266	1620.2
23	434126	267	1620.2
23	434137	268	1620.2
23	434163	269	1620.2
23	434214	270	1620.2
23	434240	271	1620.2
22	3	1	941.72956012162
22	15436	2	943.96689444037
22	21962	3	947.60112601721
22	22283	4	952.60107493957
22	44563	5	958.93531236646
22	60368	6	966.67615690842
22	66908	7	977.99491141017
22	67229	8	987.25278390333
22	74135	9	996.48681592424
22	91498	10	1005.7153874074
22	114373	11	1015.5000195221
22	116443	12	1024.001933798
22	123549	13	1030.0163581938
22	124718	14	1035.8565617964
22	147826	15	1041.6912197371
22	163648	16	1047.5370047177
22	170141	17	1053.3664387227
22	171363	18	1059.2065214285
22	178546	19	1065.052901499
22	194239	20	1070.8843100119
22	213060	21	1076.724194154
22	214119	22	1082.5606910607
22	220005	23	1088.4025481762
22	220526	24	1094.2437131741
22	237261	25	1100.0838107861
22	246811	26	1105.9332645478
22	251102	27	1111.767350634
22	251808	28	1117.0269052366
22	256686	29	1120.4586635147
22	268881	30	1126.8664883246
22	281149	31	1136.3605726156
22	281833	32	1144.1715863322
22	285496	33	1152.5091365044
22	285957	34	1162.9626621235
22	298127	35	1175.4406141693
22	304243	36	1188.4981002545
22	307239	37	1200.9218156909
22	307900	38	1209.3526597597
22	310743	39	1215.8262144886
22	318275	40	1224.2584761854
22	326240	41	1234.7227241471
22	326441	42	1247.1759540319
22	329238	43	1260.2309037425
22	329601	44	1273.2865582838
22	337397	45	1286.253364075
22	341530	46	1296.1380431341
22	343645	47	1303.5047773764
22	343990	48	1312.8274234636
22	346057	49	1323.8302077682
22	350820	50	1336.1260380852
22	355619	51	1345.3594084686
22	355922	52	1354.6031091675
22	357589	53	1363.8459963664
22	358201	54	1373.0787035403
22	363733	55	1382.3069743469
22	366542	56	1391.5322536057
22	368340	57	1399.9063368486
22	368581	58	1405.2175742419
22	370263	59	1410.1482624683
22	374213	60	1416.8199087339
22	378123	61	1425.9555843743
22	378264	62	1438.1563519843
22	379744	63	1451.224327372
22	379875	64	1464.2790725355
22	384180	65	1477.3614596617
22	386659	66	1490.4304343403
22	387662	67	1503.50630845
22	387869	68	1516.5458440797
22	388757	69	1529.6244177831
22	390301	70	1542.6844965258
22	392634	71	1555.74388353
22	392735	72	1568.8181207807
22	393465	73	1581.8805834266
22	393629	74	1594.9278539384
22	395500	75	1605.8916272975
22	397168	76	1613.136691005
22	398006	77	1619.0007334514
22	398216	78	1620.2
22	398926	79	1620.2
22	400312	80	1620.2
22	402084	81	1620.2
22	402176	82	1620.2
22	402842	83	1620.2
22	403032	84	1620.2
22	404804	85	1620.2
22	406032	86	1620.2
22	406692	87	1620.2
22	406892	88	1620.2
22	407609	89	1620.2
22	408840	90	1620.2
22	410489	91	1620.2
22	410636	92	1620.2
22	411234	93	1620.2
22	411381	94	1620.2
22	413188	95	1620.2
22	413970	96	1620.2
22	414565	97	1620.2
22	414646	98	1620.2
22	415140	99	1620.2
22	416024	100	1620.2
22	417220	101	1620.2
22	417349	102	1620.2
22	417785	103	1620.2
22	417856	104	1620.2
22	419066	105	1620.2
22	419615	106	1620.2
22	420054	107	1620.2
22	420169	108	1620.2
22	420564	109	1620.2
22	421397	110	1620.2
22	422361	111	1620.2
22	422432	112	1620.2
22	422737	113	1620.2
22	422838	114	1620.2
22	423572	115	1620.2
22	424216	116	1620.2
22	424520	117	1620.2
22	424581	118	1620.2
22	424811	119	1620.2
22	425278	120	1620.2
22	425777	121	1620.2
22	425828	122	1620.2
22	426058	123	1620.2
22	426100	124	1620.2
22	426586	125	1620.2
22	426718	126	1620.2
22	426825	127	1620.2
22	426856	128	1620.2
22	426963	129	1620.2
22	427255	130	1620.2
22	427362	131	1620.2
22	427393	132	1620.2
22	427500	133	1620.2
22	427579	134	1620.2
22	427947	135	1620.2
22	428026	136	1620.2
22	428133	137	1620.2
22	428164	138	1620.2
22	428296	139	1620.2
22	428588	140	1620.2
22	428695	141	1620.2
22	428750	142	1620.2
22	428857	143	1620.2
22	428888	144	1620.2
22	429286	145	1620.2
22	429317	146	1620.2
22	429424	147	1620.2
22	429455	148	1620.2
22	429586	149	1620.2
22	429742	150	1620.2
22	429804	151	1620.2
22	429825	152	1620.2
22	429887	153	1620.2
22	429908	154	1620.2
22	430086	155	1620.2
22	430107	156	1620.2
22	430169	157	1620.2
22	430190	158	1620.2
22	430252	159	1620.2
22	430389	160	1620.2
22	430451	161	1620.2
22	430472	162	1620.2
22	430534	163	1620.2
22	430555	164	1620.2
22	430733	165	1620.2
22	430773	166	1620.2
22	430835	167	1620.2
22	430875	168	1620.2
22	430937	169	1620.2
22	431074	170	1620.2
22	431136	171	1620.2
22	431157	172	1620.2
22	431219	173	1620.2
22	431240	174	1620.2
22	431418	175	1620.2
22	431439	176	1620.2
22	431501	177	1620.2
22	431522	178	1620.2
22	431584	179	1620.2
22	431721	180	1620.2
22	431783	181	1620.2
22	431804	182	1620.2
22	431866	183	1620.2
22	431877	184	1620.2
22	431943	185	1620.2
22	431954	186	1620.2
22	431980	187	1620.2
22	431991	188	1620.2
22	432017	189	1620.2
22	432068	190	1620.2
22	432094	191	1620.2
22	432105	192	1620.2
22	432131	193	1620.2
22	432142	194	1620.2
22	432208	195	1620.2
22	432219	196	1620.2
22	432245	197	1620.2
22	432256	198	1620.2
22	432282	199	1620.2
22	432333	200	1620.2
22	432359	201	1620.2
22	432370	202	1620.2
22	432396	203	1620.2
22	432407	204	1620.2
22	432473	205	1620.2
22	432484	206	1620.2
22	432510	207	1620.2
22	432521	208	1620.2
22	432547	209	1620.2
22	432598	210	1620.2
22	432624	211	1620.2
22	432635	212	1620.2
22	432661	213	1620.2
22	432672	214	1620.2
22	432738	215	1620.2
22	432749	216	1620.2
22	432775	217	1620.2
22	432786	218	1620.2
22	432812	219	1620.2
22	432863	220	1620.2
22	432889	221	1620.2
22	432900	222	1620.2
22	432926	223	1620.2
22	432937	224	1620.2
22	433003	225	1620.2
22	433014	226	1620.2
22	433040	227	1620.2
22	433051	228	1620.2
22	433077	229	1620.2
22	433128	230	1620.2
22	433154	231	1620.2
22	433165	232	1620.2
22	433191	233	1620.2
22	433202	234	1620.2
22	433268	235	1620.2
22	433279	236	1620.2
22	433305	237	1620.2
22	433316	238	1620.2
22	433342	239	1620.2
22	433393	240	1620.2
22	433419	241	1620.2
22	433430	242	1620.2
22	433456	243	1620.2
22	433467	244	1620.2
22	433533	245	1620.2
22	433544	246	1620.2
22	433570	247	1620.2
22	433581	248	1620.2
22	433607	249	1620.2
22	433658	250	1620.2
22	433684	251	1620.2
22	433695	252	1620.2
22	433721	253	1620.2
22	433732	254	1620.2
22	433798	255	1619.6678590586
22	433822	256	1616.0541546014
22	433848	257	1609.4838532779
22	433872	258	1601.0015036702
22	433898	259	1590.4387740554
22	433949	260	1577.9204136069
22	433975	261	1564.8370339927
22	433986	262	1551.7860913199
22	434012	263	1538.711324004
22	434023	264	1525.6520101291
22	434089	265	1512.5693414303
22	434100	266	1499.5045472558
22	434126	267	1486.4482338912
22	434137	268	1473.3750013362
22	434163	269	1460.3201475623
22	434214	270	1447.2759492886
22	434240	271	1434.2103715334

