version 2
run General-0-20250521-11:36:01-2892
attr configname General
attr datetime 20250521-11:36:01
attr experiment General
attr inifile omnetpp.ini
attr iterationvars ""
attr iterationvarsf ""
attr measurement ""
attr network RSUExampleScenario
attr processid 2892
attr repetition 0
attr replication #0
attr resultdir results
attr runnumber 0
attr seedset 0
param *.playgroundSizeX 5000m
param *.playgroundSizeY 5000m
param *.playgroundSizeZ 50m
param *.annotations.draw true
param *.obstacles.obstacles "xmldoc(\"config.xml\", \"//AnalogueModel[@type='SimpleObstacleShadowing']/obstacles\")"
param *.manager.updateInterval 1s
param *.manager.host "\"localhost\""
param *.manager.port 9999
param *.manager.autoShutdown true
param *.manager.launchConfig "xmldoc(\"erlangen.launchd.xml\")"
param *.manager.trafficLightModuleType "\"org.car2x.veins.nodes.TrafficLight\""
param *.tls[*].mobility.x 0
param *.tls[*].mobility.y 0
param *.tls[*].mobility.z 3
param *.tls[*].applType "\"org.car2x.veins.modules.application.traci.TraCIDemoTrafficLightApp\""
param *.tls[*].logicType "\"org.car2x.veins.modules.world.traci.trafficLight.logics.TraCITrafficLightSimpleLogic\""
param *.rsu[0].mobility.x 1000
param *.rsu[0].mobility.y 1000
param *.rsu[0].mobility.z 3
param *.rsu[*].applType "\"RSUControlApp\""
param *.rsu[*].appl.headerLength "80 bit"
param *.rsu[*].appl.sendBeacons false
param *.rsu[*].appl.dataOnSch false
param *.rsu[*].appl.beaconInterval 1s
param *.rsu[*].appl.beaconUserPriority 7
param *.rsu[*].appl.dataUserPriority 5
param *.rsu[*].appl.netFile "\"./erlangen.net.xml\""
param *.rsu[*].appl.routeFile "\"./erlangen.rou.xml\""
param *.rsu[*].nic.phy80211p.antennaOffsetZ "0 m"
param *.connectionManager.sendDirect true
param *.connectionManager.maxInterfDist 4000m
param *.connectionManager.drawMaxIntfDist false
param *.**.nic.mac1609_4.useServiceChannel false
param *.**.nic.mac1609_4.txPower 50mW
param *.**.nic.mac1609_4.bitrate 6Mbps
param *.**.nic.phy80211p.minPowerLevel -110dBm
param *.**.nic.phy80211p.useNoiseFloor true
param *.**.nic.phy80211p.noiseFloor -98dBm
param *.**.nic.phy80211p.decider "xmldoc(\"config.xml\")"
param *.**.nic.phy80211p.analogueModels "xmldoc(\"config.xml\")"
param *.**.nic.phy80211p.usePropagationDelay true
param *.**.nic.phy80211p.antenna "xmldoc(\"antenna.xml\", \"/root/Antenna[@id='monopole']\")"
param *.node[*].nic.phy80211p.antennaOffsetY "0 m"
param *.node[*].nic.phy80211p.antennaOffsetZ "1.895 m"
param *.node[*].applType "\"VehicleControlApp\""
param *.node[*].appl.headerLength "80 bit"
param *.node[*].appl.sendBeacons true
param *.node[*].appl.dataOnSch false
param *.node[*].appl.beaconInterval 1s
param *.node[*].veinsmobility.x 0
param *.node[*].veinsmobility.y 0
param *.node[*].veinsmobility.z 0
param *.node[*].veinsmobility.setHostSpeed false
param *.node[*0].veinsmobility.accidentCount 1
param *.node[*0].veinsmobility.accidentStart 73s
param *.node[*0].veinsmobility.accidentDuration 50s

vector 0 RSUExampleScenario.node[0].veinsmobility posx ETV
vector 1 RSUExampleScenario.node[0].veinsmobility posy ETV
vector 2 RSUExampleScenario.node[1].veinsmobility posx ETV
vector 3 RSUExampleScenario.node[1].veinsmobility posy ETV
vector 4 RSUExampleScenario.node[2].veinsmobility posx ETV
vector 5 RSUExampleScenario.node[2].veinsmobility posy ETV
vector 6 RSUExampleScenario.node[3].veinsmobility posx ETV
vector 7 RSUExampleScenario.node[3].veinsmobility posy ETV
vector 8 RSUExampleScenario.node[4].veinsmobility posx ETV
vector 9 RSUExampleScenario.node[4].veinsmobility posy ETV
vector 10 RSUExampleScenario.node[5].veinsmobility posx ETV
vector 11 RSUExampleScenario.node[5].veinsmobility posy ETV
vector 12 RSUExampleScenario.node[6].veinsmobility posx ETV
vector 13 RSUExampleScenario.node[6].veinsmobility posy ETV
vector 14 RSUExampleScenario.node[7].veinsmobility posx ETV
vector 15 RSUExampleScenario.node[7].veinsmobility posy ETV
vector 16 RSUExampleScenario.node[8].veinsmobility posx ETV
vector 17 RSUExampleScenario.node[8].veinsmobility posy ETV
vector 18 RSUExampleScenario.node[9].veinsmobility posx ETV
vector 19 RSUExampleScenario.node[9].veinsmobility posy ETV
vector 20 RSUExampleScenario.node[10].veinsmobility posx ETV
vector 21 RSUExampleScenario.node[10].veinsmobility posy ETV
vector 22 RSUExampleScenario.node[11].veinsmobility posx ETV
vector 23 RSUExampleScenario.node[11].veinsmobility posy ETV
vector 24 RSUExampleScenario.node[12].veinsmobility posx ETV
vector 25 RSUExampleScenario.node[12].veinsmobility posy ETV
vector 26 RSUExampleScenario.node[13].veinsmobility posx ETV
vector 27 RSUExampleScenario.node[13].veinsmobility posy ETV
vector 28 RSUExampleScenario.node[14].veinsmobility posx ETV
vector 29 RSUExampleScenario.node[14].veinsmobility posy ETV
vector 30 RSUExampleScenario.node[15].veinsmobility posx ETV
vector 31 RSUExampleScenario.node[15].veinsmobility posy ETV
vector 32 RSUExampleScenario.node[16].veinsmobility posx ETV
vector 33 RSUExampleScenario.node[16].veinsmobility posy ETV
vector 34 RSUExampleScenario.node[17].veinsmobility posx ETV
vector 35 RSUExampleScenario.node[17].veinsmobility posy ETV
vector 36 RSUExampleScenario.node[18].veinsmobility posx ETV
vector 37 RSUExampleScenario.node[18].veinsmobility posy ETV
vector 38 RSUExampleScenario.node[19].veinsmobility posx ETV
vector 39 RSUExampleScenario.node[19].veinsmobility posy ETV
vector 40 RSUExampleScenario.node[20].veinsmobility posx ETV
vector 41 RSUExampleScenario.node[20].veinsmobility posy ETV
vector 42 RSUExampleScenario.node[21].veinsmobility posx ETV
vector 43 RSUExampleScenario.node[21].veinsmobility posy ETV
vector 44 RSUExampleScenario.node[22].veinsmobility posx ETV
vector 45 RSUExampleScenario.node[22].veinsmobility posy ETV
vector 46 RSUExampleScenario.node[23].veinsmobility posx ETV
vector 47 RSUExampleScenario.node[23].veinsmobility posy ETV
vector 48 RSUExampleScenario.node[24].veinsmobility posx ETV
vector 49 RSUExampleScenario.node[24].veinsmobility posy ETV
vector 50 RSUExampleScenario.node[25].veinsmobility posx ETV
vector 51 RSUExampleScenario.node[25].veinsmobility posy ETV
vector 52 RSUExampleScenario.node[26].veinsmobility posx ETV
vector 53 RSUExampleScenario.node[26].veinsmobility posy ETV
vector 54 RSUExampleScenario.node[27].veinsmobility posx ETV
vector 55 RSUExampleScenario.node[27].veinsmobility posy ETV
vector 56 RSUExampleScenario.node[28].veinsmobility posx ETV
vector 57 RSUExampleScenario.node[28].veinsmobility posy ETV
vector 58 RSUExampleScenario.node[29].veinsmobility posx ETV
vector 59 RSUExampleScenario.node[29].veinsmobility posy ETV
vector 60 RSUExampleScenario.node[30].veinsmobility posx ETV
vector 61 RSUExampleScenario.node[30].veinsmobility posy ETV
vector 62 RSUExampleScenario.node[31].veinsmobility posx ETV
vector 63 RSUExampleScenario.node[31].veinsmobility posy ETV
vector 64 RSUExampleScenario.node[32].veinsmobility posx ETV
vector 65 RSUExampleScenario.node[32].veinsmobility posy ETV
vector 66 RSUExampleScenario.node[0].veinsmobility speed ETV
vector 67 RSUExampleScenario.node[1].veinsmobility speed ETV
vector 68 RSUExampleScenario.node[2].veinsmobility speed ETV
vector 69 RSUExampleScenario.node[3].veinsmobility speed ETV
vector 70 RSUExampleScenario.node[4].veinsmobility speed ETV
vector 71 RSUExampleScenario.node[5].veinsmobility speed ETV
vector 72 RSUExampleScenario.node[6].veinsmobility speed ETV
vector 73 RSUExampleScenario.node[7].veinsmobility speed ETV
vector 74 RSUExampleScenario.node[8].veinsmobility speed ETV
vector 75 RSUExampleScenario.node[9].veinsmobility speed ETV
vector 76 RSUExampleScenario.node[10].veinsmobility speed ETV
vector 77 RSUExampleScenario.node[11].veinsmobility speed ETV
vector 78 RSUExampleScenario.node[12].veinsmobility speed ETV
vector 79 RSUExampleScenario.node[13].veinsmobility speed ETV
vector 80 RSUExampleScenario.node[14].veinsmobility speed ETV
vector 81 RSUExampleScenario.node[15].veinsmobility speed ETV
vector 82 RSUExampleScenario.node[16].veinsmobility speed ETV
vector 83 RSUExampleScenario.node[17].veinsmobility speed ETV
vector 84 RSUExampleScenario.node[18].veinsmobility speed ETV
vector 85 RSUExampleScenario.node[19].veinsmobility speed ETV
vector 86 RSUExampleScenario.node[20].veinsmobility speed ETV
vector 87 RSUExampleScenario.node[21].veinsmobility speed ETV
vector 88 RSUExampleScenario.node[22].veinsmobility speed ETV
vector 89 RSUExampleScenario.node[23].veinsmobility speed ETV
vector 90 RSUExampleScenario.node[24].veinsmobility speed ETV
vector 91 RSUExampleScenario.node[25].veinsmobility speed ETV
vector 92 RSUExampleScenario.node[26].veinsmobility speed ETV
vector 93 RSUExampleScenario.node[27].veinsmobility speed ETV
vector 94 RSUExampleScenario.node[28].veinsmobility speed ETV
vector 95 RSUExampleScenario.node[29].veinsmobility speed ETV
vector 96 RSUExampleScenario.node[30].veinsmobility speed ETV
vector 97 RSUExampleScenario.node[31].veinsmobility speed ETV
vector 98 RSUExampleScenario.node[32].veinsmobility speed ETV
vector 99 RSUExampleScenario.node[0].veinsmobility acceleration ETV
vector 100 RSUExampleScenario.node[0].veinsmobility co2emission ETV
vector 101 RSUExampleScenario.node[1].veinsmobility acceleration ETV
vector 102 RSUExampleScenario.node[1].veinsmobility co2emission ETV
vector 103 RSUExampleScenario.node[2].veinsmobility acceleration ETV
vector 104 RSUExampleScenario.node[2].veinsmobility co2emission ETV
vector 105 RSUExampleScenario.node[3].veinsmobility acceleration ETV
vector 106 RSUExampleScenario.node[3].veinsmobility co2emission ETV
vector 107 RSUExampleScenario.node[4].veinsmobility acceleration ETV
vector 108 RSUExampleScenario.node[4].veinsmobility co2emission ETV
vector 109 RSUExampleScenario.node[5].veinsmobility acceleration ETV
vector 110 RSUExampleScenario.node[5].veinsmobility co2emission ETV
vector 111 RSUExampleScenario.node[6].veinsmobility acceleration ETV
vector 112 RSUExampleScenario.node[6].veinsmobility co2emission ETV
vector 113 RSUExampleScenario.node[7].veinsmobility acceleration ETV
vector 114 RSUExampleScenario.node[7].veinsmobility co2emission ETV
vector 115 RSUExampleScenario.node[8].veinsmobility acceleration ETV
vector 116 RSUExampleScenario.node[8].veinsmobility co2emission ETV
vector 117 RSUExampleScenario.node[9].veinsmobility acceleration ETV
vector 118 RSUExampleScenario.node[9].veinsmobility co2emission ETV
vector 119 RSUExampleScenario.node[10].veinsmobility acceleration ETV
vector 120 RSUExampleScenario.node[10].veinsmobility co2emission ETV
vector 121 RSUExampleScenario.node[11].veinsmobility acceleration ETV
vector 122 RSUExampleScenario.node[11].veinsmobility co2emission ETV
vector 123 RSUExampleScenario.node[12].veinsmobility acceleration ETV
vector 124 RSUExampleScenario.node[12].veinsmobility co2emission ETV
vector 125 RSUExampleScenario.node[13].veinsmobility acceleration ETV
vector 126 RSUExampleScenario.node[13].veinsmobility co2emission ETV
vector 127 RSUExampleScenario.node[14].veinsmobility acceleration ETV
vector 128 RSUExampleScenario.node[14].veinsmobility co2emission ETV
vector 129 RSUExampleScenario.node[15].veinsmobility acceleration ETV
vector 130 RSUExampleScenario.node[15].veinsmobility co2emission ETV
vector 131 RSUExampleScenario.node[16].veinsmobility acceleration ETV
vector 132 RSUExampleScenario.node[16].veinsmobility co2emission ETV
vector 133 RSUExampleScenario.node[17].veinsmobility acceleration ETV
vector 134 RSUExampleScenario.node[17].veinsmobility co2emission ETV
vector 135 RSUExampleScenario.node[18].veinsmobility acceleration ETV
vector 136 RSUExampleScenario.node[18].veinsmobility co2emission ETV
vector 137 RSUExampleScenario.node[19].veinsmobility acceleration ETV
vector 138 RSUExampleScenario.node[19].veinsmobility co2emission ETV
vector 139 RSUExampleScenario.node[20].veinsmobility acceleration ETV
vector 140 RSUExampleScenario.node[20].veinsmobility co2emission ETV
vector 141 RSUExampleScenario.node[21].veinsmobility acceleration ETV
vector 142 RSUExampleScenario.node[21].veinsmobility co2emission ETV
vector 143 RSUExampleScenario.node[22].veinsmobility acceleration ETV
vector 144 RSUExampleScenario.node[22].veinsmobility co2emission ETV
vector 145 RSUExampleScenario.node[23].veinsmobility acceleration ETV
vector 146 RSUExampleScenario.node[23].veinsmobility co2emission ETV
vector 147 RSUExampleScenario.node[24].veinsmobility acceleration ETV
vector 148 RSUExampleScenario.node[24].veinsmobility co2emission ETV
vector 149 RSUExampleScenario.node[25].veinsmobility acceleration ETV
vector 150 RSUExampleScenario.node[25].veinsmobility co2emission ETV
vector 151 RSUExampleScenario.node[26].veinsmobility acceleration ETV
vector 152 RSUExampleScenario.node[26].veinsmobility co2emission ETV
vector 153 RSUExampleScenario.node[27].veinsmobility acceleration ETV
vector 154 RSUExampleScenario.node[27].veinsmobility co2emission ETV
vector 155 RSUExampleScenario.node[28].veinsmobility acceleration ETV
vector 156 RSUExampleScenario.node[28].veinsmobility co2emission ETV
vector 157 RSUExampleScenario.node[29].veinsmobility acceleration ETV
vector 158 RSUExampleScenario.node[29].veinsmobility co2emission ETV
vector 159 RSUExampleScenario.node[30].veinsmobility acceleration ETV
vector 160 RSUExampleScenario.node[30].veinsmobility co2emission ETV
vector 161 RSUExampleScenario.node[31].veinsmobility acceleration ETV
vector 162 RSUExampleScenario.node[31].veinsmobility co2emission ETV
vector 163 RSUExampleScenario.node[32].veinsmobility acceleration ETV
vector 164 RSUExampleScenario.node[32].veinsmobility co2emission ETV
132	17986	3	2.5444319130566
132	17987	4	3.5750728479024
132	42805	5	5.7999375288866
132	59237	6	7.3503680699899
132	65829	7	9.1965311406392
132	65830	8	10.229710604832
132	72416	9	0.973
132	88547	10	0.973
132	111169	11	4.4417553818849
132	111170	12	0.973
132	117764	13	4.1722092467617
132	117765	14	0.973
132	141885	15	5.2646940800972
132	158378	16	0.973
132	169634	17	0.973
132	169635	18	0.973
132	176221	19	0.973
132	193893	20	5.3186665342443
132	215748	21	6.1607681497948
132	215749	22	5.5222256880487
132	222357	23	5.5792297080571
132	222358	24	8.4989210715433
132	246612	25	5.1245999932879
132	262186	26	0.973
132	268828	27	2.2517035886511
131	17986	3	1.6484078801703
131	17987	4	1.8217439678498
131	42805	5	2.397175769927
131	59237	6	2.397207119083
131	65829	7	2.4700326033402
131	65830	8	2.3085488446933
131	72416	9	-0.52151485979557
131	88547	10	-0.52900543904398
131	111169	11	0.69220779852476
131	111170	12	-0.34762832007837
131	117764	13	0.59572265623137
131	117765	14	-0.73476749323308
131	141885	15	0.89373450339772
131	158378	16	-1.2341229527257
131	169634	17	-1.5345133301502
131	169635	18	-3.1564397076847
131	176221	19	-4.3223111890606
131	193893	20	2.3615741371177
131	215748	21	2.1253627492348
131	215749	22	1.5165522359312
131	222357	23	1.3267215030966
131	222358	24	1.9650654530153
131	246612	25	0.86210360527571
131	262186	26	-0.39899024409242
131	268828	27	0.055378132825718
82	11403	2	1.5644941205392
82	17986	3	3.2129020007094
82	17987	4	5.0346459685592
82	42805	5	7.4318217384862
82	59237	6	9.8290288575692
82	65829	7	12.299061460909
82	65830	8	14.607610305603
82	72416	9	14.086095445807
82	88547	10	13.557090006763
82	111169	11	14.249297805288
82	111170	12	13.90166948521
82	117764	13	14.497392141441
82	117765	14	13.762624648208
82	141885	15	14.656359151606
82	158378	16	13.42223619888
82	169634	17	11.88772286873
82	169635	18	8.7312831610449
82	176221	19	4.4089719719843
82	193893	20	6.7705461091021
82	215748	21	8.8959088583368
82	215749	22	10.412461094268
82	222357	23	11.739182597365
82	222358	24	13.70424805038
82	246612	25	14.566351655656
82	262186	26	14.167361411563
82	268828	27	14.222739544389
33	3	1	645.65140572817
33	11403	2	647.05067875623
33	17986	3	649.92427671506
33	17987	4	654.42723023668
33	42805	5	661.07420165798
33	59237	6	669.86521901744
33	65829	7	680.86541693878
33	65830	8	693.93036543344
33	72416	9	706.52887454207
33	88547	10	718.65424474091
33	111169	11	731.39872094314
33	111170	12	743.83228071194
33	117764	13	756.79865082124
33	117765	14	769.10784982221
33	141885	15	782.21639895715
33	158378	16	794.22115681643
33	169634	17	804.85345626511
33	169635	18	812.66265725041
33	176221	19	816.606012154
33	193893	20	822.43010419056
33	215748	21	830.62512161975
33	215749	22	840.95922339904
33	222357	23	852.69840599641
33	222358	24	866.40265404679
33	246612	25	880.96900570244
33	262186	26	895.13636711401
33	268828	27	909.3591066584
32	3	1	1229.9608318996
32	11403	2	1230.660507997
32	17986	3	1232.0973882663
32	17987	4	1234.3489924092
32	42805	5	1237.6726661529
32	59237	6	1242.0684235177
32	65829	7	1247.568833658
32	65830	8	1254.1016774937
32	72416	9	1260.4012884415
32	88547	10	1266.4643165499
32	111169	11	1272.8369151737
32	111170	12	1279.0540467854
32	117764	13	1285.5375986398
32	117765	14	1291.6925463496
32	141885	15	1298.2471917388
32	158378	16	1304.2499102656
32	169634	17	1309.5663607622
32	169635	18	1313.4711821657
32	176221	19	1315.4429711693
32	193893	20	1318.3667011575
32	215748	21	1320.1367015487
32	215749	22	1320.2
32	222357	23	1320.2
32	222358	24	1320.2
32	246612	25	1320.2
32	262186	26	1320.2
32	268828	27	1320.2
142	17986	3	2.6197349186662
142	17987	4	3.8485777986639
142	42805	5	6.1745642931035
142	59237	6	6.6927916096337
142	65829	7	5.3278667169245
142	65830	8	0.973
142	72416	9	0.973
142	88547	10	0.973
142	111169	11	3.4958630710359
142	111170	12	0.973
142	117764	13	1.235903332835
142	117765	14	2.036576264765
142	141885	15	5.1567538863162
142	158378	16	8.462234643639
142	169634	17	2.7720655796244
142	169635	18	0.973
142	176221	19	5.4874422668936
142	193893	20	0.973
142	215748	21	3.1541951501794
142	215749	22	0.973
142	222357	23	0.973
142	222358	24	0.973
142	246612	25	0.973
142	262186	26	0.973
142	268828	27	3.9067419099974
142	268829	28	5.7330783170011
142	275089	29	6.8351621683087
142	291426	30	8.1459957907913
142	313509	31	3.8902671393101
142	313510	32	1.7035266581691
142	319789	33	0.973
142	319790	34	0.973
142	341956	35	4.4251542215311
141	17986	3	1.5410411437973
141	17987	4	1.8703885182505
141	42805	5	2.4375427759252
141	59237	6	2.0831299236277
141	65829	7	1.3024518044192
141	65830	8	-0.45489813388662
141	72416	9	-3.7410650423146
141	88547	10	-0.58999288533446
141	111169	11	1.0840068769874
141	111170	12	-1.0800406684633
141	117764	13	-0.13362711460795
141	117765	14	0.35464159017429
141	141885	15	1.7538449847605
141	158378	16	2.5266649506055
141	169634	17	0.35756770798207
141	169635	18	-0.28152012559585
141	176221	19	1.2191061343066
141	193893	20	-1.2888626393396
141	215748	21	0.48714907390531
141	215749	22	-1.2813825658879
141	222357	23	-4.5
141	222358	24	-2.4905496756198
141	246612	25	-1.0626690505538
141	262186	26	-0.20762225696817
141	268828	27	2.4367390892236
141	268829	28	2.5471800411819
141	275089	29	2.3305842577945
141	291426	30	2.2777452077484
141	313509	31	0.68579354230401
141	313510	32	-0.054709573904983
141	319789	33	-0.45143584576435
141	319790	34	-0.3302179642953
141	341956	35	0.86443167794496
87	11403	2	2.0465621652314
87	17986	3	3.5876033090288
87	17987	4	5.4579918272793
87	42805	5	7.8955346032046
87	59237	6	9.9786645268323
87	65829	7	11.281116331252
87	65830	8	10.826218197365
87	72416	9	7.0851531550503
87	88547	10	6.4951602697159
87	111169	11	7.5791671467033
87	111170	12	6.4991264782399
87	117764	13	6.365499363632
87	117765	14	6.7201409538063
87	141885	15	8.4739859385668
87	158378	16	11.000650889172
87	169634	17	11.358218597154
87	169635	18	11.076698471558
87	176221	19	12.295804605865
87	193893	20	11.006941966525
87	215748	21	11.494091040431
87	215749	22	10.212708474543
87	222357	23	5.7127084745429
87	222358	24	3.222158798923
87	246612	25	2.1594897483692
87	262186	26	1.9518674914011
87	268828	27	4.3886065806246
87	268829	28	6.9357866218065
87	275089	29	9.266370879601
87	291426	30	11.544116087349
87	313509	31	12.229909629653
87	313510	32	12.175200055748
87	319789	33	11.723764209984
87	319790	34	11.393546245689
87	341956	35	12.257977923634
43	3	1	1420.2
43	11403	2	1420.2
43	17986	3	1423.4
43	17987	4	1423.4
43	42805	5	1423.4
43	59237	6	1423.4
43	65829	7	1423.4
43	65830	8	1423.4
43	72416	9	1423.4
43	88547	10	1424.0005958772
43	111169	11	1427.2877743434
43	111170	12	1432.9876734912
43	117764	13	1438.8343400598
43	117765	14	1444.1300588069
43	141885	15	1450.1220399853
43	158378	16	1457.9006336194
43	169634	17	1465.9320644651
43	169635	18	1473.7644315755
43	176221	19	1482.4588323339
43	193893	20	1490.2418744079
43	215748	21	1498.3693810707
43	215749	22	1505.5908182318
43	222357	23	1509.630291734
43	222358	24	1510.4336311521
43	246612	25	1508.452781704
43	262186	26	1506.9763279905
43	268828	27	1503.8731309565
43	268829	28	1498.968815184
43	275089	29	1492.4165362087
43	291426	30	1484.2536566834
43	313509	31	1475.6058504627
43	313510	32	1466.9967295478
43	319789	33	1458.7068202897
43	319790	34	1450.6504091565
43	341956	35	1441.9827557599
42	3	1	1209.5
42	11403	2	1207.4534378348
42	17986	3	1203.8658345257
42	17987	4	1198.4078426985
42	42805	5	1190.5123080953
42	59237	6	1180.5336435684
42	65829	7	1169.2525272372
42	65830	8	1158.4263090398
42	72416	9	1151.3411558848
42	88547	10	1144.921480235
42	111169	11	1138.4480290583
42	111170	12	1136.1200887297
42	117764	13	1137.8092385539
42	117765	14	1141.8600588069
42	141885	15	1147.8520399853
42	158378	16	1155.6306336194
42	169634	17	1163.6620644651
42	169635	18	1171.4944315755
42	176221	19	1180.1888323339
42	193893	20	1187.9718744079
42	215748	21	1196.0993810707
42	215749	22	1203.3208182318
42	222357	23	1207.360291734
42	222358	24	1210.2171911455
42	246612	25	1210.4475907585
42	262186	26	1209.2463279905
42	268828	27	1206.1431309565
42	268829	28	1201.238815184
42	275089	29	1194.6865362087
42	291426	30	1186.5236566834
42	313509	31	1177.8758504627
42	313510	32	1169.2667295478
42	319789	33	1160.9768202897
42	319790	34	1152.9204091565
42	341956	35	1144.2527557599
140	17986	3	2.3318018476891
140	17987	4	5.0814273261756
140	42805	5	5.0812502763914
140	59237	6	6.5005508039739
140	65829	7	7.7295302890705
140	65830	8	9.4070462073863
140	72416	9	0.973
140	88547	10	0.973
140	111169	11	0.973
140	111170	12	0.973
140	117764	13	3.0375609702501
140	117765	14	3.6967404857217
140	141885	15	4.6504193119977
140	158378	16	4.9712178079912
140	169634	17	8.5119581308237
140	169635	18	9.3471268697472
140	176221	19	0.973
140	193893	20	0.973
140	215748	21	0.973
140	215749	22	4.2951438959519
140	222357	23	5.5289332414119
140	222358	24	6.3484393309097
140	246612	25	8.0184892089086
140	262186	26	6.3754550587623
140	268828	27	9.2149342976076
140	268829	28	0.973
140	275089	29	0.973
140	291426	30	0.973
140	313509	31	0.973
140	313510	32	2.5059183273263
140	319789	33	4.6436674208469
140	319790	34	4.2993694127535
140	341956	35	5.2238387619155
140	357174	36	6.6149955715566
140	363090	37	9.123897717653
140	363091	38	12.083544669305
139	17986	3	1.3036597494269
139	17987	4	2.5662959037116
139	42805	5	1.8854387812782
139	59237	6	2.0340808888432
139	65829	7	2.0535218579695
139	65830	8	2.1705647335853
139	72416	9	-3.4978579005456
139	88547	10	-4.5
139	111169	11	-2.1448114967614
139	111170	12	-0.54687075561378
139	117764	13	1.4471580943558
139	117765	14	1.4845834727632
139	141885	15	1.6259591176407
139	158378	16	1.4688118616352
139	169634	17	2.3572174035013
139	169635	18	2.1767632628093
139	176221	19	-0.86661680519659
139	193893	20	-4.5
139	215748	21	-3.7267410079483
139	215749	22	1.7774733030237
139	222357	23	1.9178166325903
139	222358	24	1.849658973559
139	246612	25	2.0450410797959
139	262186	26	1.3157359163975
139	268828	27	1.8601164720254
139	268829	28	-2.055815401837
139	275089	29	-4.5
139	291426	30	-3.5346208456904
139	313509	31	-2.478835925833
139	313510	32	1.1677525830222
139	319789	33	2.1051136294846
139	319790	34	1.4746964416467
139	341956	35	1.58607712097
139	357174	36	1.7959781064186
139	363090	37	2.2145512616495
139	363091	38	2.5575819627848
86	11403	2	2.0578714020317
86	17986	3	3.3615311514586
86	17987	4	5.9278270551702
86	42805	5	7.8132658364484
86	59237	6	9.8473467252916
86	65829	7	11.900868583261
86	65830	8	14.071433316846
86	72416	9	10.573575416301
86	88547	10	6.0735754163008
86	111169	11	3.9287639195393
86	111170	12	3.3818931639256
86	117764	13	4.8290512582814
86	117765	14	6.3136347310446
86	141885	15	7.9395938486853
86	158378	16	9.4084057103205
86	169634	17	11.765623113822
86	169635	18	13.942386376631
86	176221	19	13.075769571434
86	193893	20	8.5757695714344
86	215748	21	4.8490285634861
86	215749	22	6.6265018665099
86	222357	23	8.5443184991001
86	222358	24	10.393977472659
86	246612	25	12.439018552455
86	262186	26	13.754754468853
86	268828	27	15.614870940878
86	268829	28	13.559055539041
86	275089	29	9.059055539041
86	291426	30	5.5244346933506
86	313509	31	3.0455987675177
86	313510	32	4.2133513505399
86	319789	33	6.3184649800244
86	319790	34	7.7931614216711
86	341956	35	9.3792385426411
86	357174	36	11.17521664906
86	363090	37	13.389767910709
86	363091	38	15.947349873494
41	3	1	1309.5
41	11403	2	1307.442128598
41	17986	3	1304.0805974465
41	17987	4	1298.1527703913
41	42805	5	1290.3395045549
41	59237	6	1280.4921578296
41	65829	7	1268.5912892463
41	65830	8	1254.5198559295
41	72416	9	1243.9462805132
41	88547	10	1237.8727050969
41	111169	11	1234.1933518186
41	111170	12	1235.5679519866
41	117764	13	1240.3970032449
41	117765	14	1246.7106379759
41	141885	15	1254.6502318246
41	158378	16	1264.0586375349
41	169634	17	1275.8242606487
41	169635	18	1289.7666470254
41	176221	19	1302.8424165968
41	193893	20	1311.4181861682
41	215748	21	1316.2539301522
41	215749	22	1322.4184644449
41	222357	23	1326.2448147046
41	222358	24	1326.6
41	246612	25	1326.6
41	262186	26	1326.6
41	268828	27	1326.6
41	268829	28	1326.6
41	275089	29	1326.6
41	291426	30	1326.6
41	313509	31	1324.3963547095
41	313510	32	1323.4
41	319789	33	1323.4
41	319790	34	1323.4
41	341956	35	1323.4
41	357174	36	1323.4
41	363090	37	1323.4
41	363091	38	1323.4
40	3	1	629.8
40	11403	2	629.8
40	17986	3	626.6
40	17987	4	626.6
40	42805	5	626.6
40	59237	6	626.6
40	65829	7	626.6
40	65830	8	626.6
40	72416	9	626.6
40	88547	10	626.6
40	111169	11	625.78670363712
40	111170	12	623.4
40	117764	13	623.4
40	117765	14	623.4
40	141885	15	623.4
40	158378	16	623.4
40	169634	17	623.4
40	169635	18	623.4
40	176221	19	623.4
40	193893	20	623.4
40	215748	21	623.63912243164
40	215749	22	625.69107866695
40	222357	23	632.91370293195
40	222358	24	643.28201256998
40	246612	25	655.72103112244
40	262186	26	669.47578559129
40	268828	27	685.09065653217
40	268829	28	698.64971207121
40	275089	29	707.70876761025
40	291426	30	713.2332023036
40	313509	31	714.56817735474
40	313510	32	710.71784757834
40	319789	33	704.39938259832
40	319790	34	696.60622117665
40	341956	35	687.226982634
40	357174	36	676.05176598494
40	363090	37	662.66199807424
40	363091	38	646.71464820074
126	17986	3	2.7702894064821
126	17987	4	4.4343076483746
126	42805	5	4.9916969067913
126	59237	6	7.5373550810737
126	65829	7	8.6688386127614
126	65830	8	1.7838962170204
126	72416	9	5.6625616526763
126	88547	10	0.973
126	111169	11	0.973
126	111170	12	2.3429402417451
126	117764	13	5.0282722753436
126	117765	14	1.7831043263405
126	141885	15	2.132095441912
126	158378	16	0.973
126	169634	17	2.537795266746
126	169635	18	0.973
126	176221	19	5.555579460572
126	193893	20	0.973
126	215748	21	1.27895949687
126	215749	22	0.973
126	222357	23	1.8562179734785
126	222358	24	1.668564753649
126	246612	25	2.1445324485883
126	262186	26	1.6529581463713
126	268828	27	2.4468876903287
126	268829	28	2.7152319970422
126	275089	29	4.5094168637785
126	291426	30	0.973
126	313509	31	1.7153182026916
126	313510	32	0.973
126	319789	33	0.973
126	319790	34	0.973
126	341956	35	2.2584849161133
126	357174	36	2.376408218595
126	363090	37	0.973
126	363091	38	4.0801003795669
126	369007	39	7.5873137599852
126	381249	40	8.7412433533251
126	401496	41	5.2083039348054
126	401497	42	3.9052418847451
126	407060	43	0.973
125	17986	3	1.5186360970139
125	17987	4	2.0630994800711
125	42805	5	1.820642750198
125	59237	6	2.3637243047589
125	65829	7	2.2507543020416
125	65830	8	-0.035174299722872
125	72416	9	1.1204723274801
125	88547	10	-0.60880998936482
125	111169	11	-0.31896314842161
125	111170	12	0.13725160486065
125	117764	13	0.91449680530932
125	117765	14	-0.066586872958577
125	141885	15	0.038345160381869
125	158378	16	-0.87635279202368
125	169634	17	0.19131638414692
125	169635	18	-0.38492941299919
125	176221	19	1.0765472446335
125	193893	20	-0.53169154280331
125	215748	21	-0.21014114283025
125	215749	22	-0.38906518246513
125	222357	23	-0.013392625399865
125	222358	24	-0.073708114400507
125	246612	25	0.08174600841012
125	262186	26	-0.078971386840568
125	268828	27	0.17737261720467
125	268829	28	0.25265314246062
125	275089	29	0.76127911631484
125	291426	30	-0.78580573385116
125	313509	31	-0.066822656919248
125	313510	32	-0.33630229604896
125	319789	33	-2.8350795914149
125	319790	34	-4.5
125	341956	35	0.61623250555817
125	357174	36	0.61072189107072
125	363090	37	-0.97571109118871
125	363091	38	1.5571256117662
125	369007	39	2.5863150627585
125	381249	40	2.4002554730978
125	401496	41	1.0461624762927
125	401497	42	0.58486307938583
125	407060	43	-0.91314231727738
79	11403	2	2.475277706515
79	17986	3	3.993913803529
79	17987	4	6.0570132836001
79	42805	5	7.8776560337981
79	59237	6	10.241380338557
79	65829	7	12.492134640599
79	65830	8	12.456960340876
79	72416	9	13.577432668356
79	88547	10	12.968622678991
79	111169	11	12.649659530569
79	111170	12	12.78691113543
79	117764	13	13.701407940739
79	117765	14	13.634821067781
79	141885	15	13.673166228163
79	158378	16	12.796813436139
79	169634	17	12.988129820286
79	169635	18	12.603200407287
79	176221	19	13.67974765192
79	193893	20	13.148056109117
79	215748	21	12.937914966287
79	215749	22	12.548849783822
79	222357	23	12.535457158422
79	222358	24	12.461749044021
79	246612	25	12.543495052431
79	262186	26	12.464523665591
79	268828	27	12.641896282795
79	268829	28	12.894549425256
79	275089	29	13.655828541571
79	291426	30	12.87002280772
79	313509	31	12.803200150801
79	313510	32	12.466897854752
79	319789	33	9.6318182633367
79	319790	34	5.1318182633367
79	341956	35	5.7480507688949
79	357174	36	6.3587726599656
79	363090	37	5.3830615687769
79	363091	38	6.9401871805431
79	369007	39	9.5265022433016
79	381249	40	11.926757716399
79	401496	41	12.972920192692
79	401497	42	13.557783272078
79	407060	43	12.644640954801
27	3	1	230.1
27	11403	2	232.57527770651
27	17986	3	236.56919151004
27	17987	4	242.62620479364
27	42805	5	250.50386082744
27	59237	6	260.745241166
27	65829	7	273.2373758066
27	65830	8	285.69433614747
27	72416	9	299.27176881583
27	88547	10	312.24039149482
27	111169	11	324.89005102539
27	111170	12	337.67696216082
27	117764	13	351.37837010156
27	117765	14	365.01319116934
27	141885	15	378.6863573975
27	158378	16	391.48317083364
27	169634	17	404.47130065393
27	169635	18	417.07450106121
27	176221	19	430.75424871314
27	193893	20	443.90230482225
27	215748	21	456.84021978854
27	215749	22	469.38906957236
27	222357	23	481.92452673078
27	222358	24	494.3862757748
27	246612	25	506.92977082724
27	262186	26	519.39429449283
27	268828	27	532.03619077562
27	268829	28	544.93074020088
27	275089	29	558.58656874245
27	291426	30	571.45659155017
27	313509	31	584.25979170097
27	313510	32	596.72668955572
27	319789	33	606.35850781906
27	319790	34	611.49032608239
27	341956	35	617.19055698048
27	357174	36	620.19535351196
27	363090	37	620.2
27	363091	38	620.2
27	369007	39	620.2
27	381249	40	620.2
27	401496	41	620.2
27	401497	42	620.2
27	407060	43	620.2
26	3	1	1220.2
26	11403	2	1220.2
26	17986	3	1220.2
26	17987	4	1220.2
26	42805	5	1220.2
26	59237	6	1220.2
26	65829	7	1220.2
26	65830	8	1220.2
26	72416	9	1220.2
26	88547	10	1220.2
26	111169	11	1220.2
26	111170	12	1220.2
26	117764	13	1220.2
26	117765	14	1220.2
26	141885	15	1220.2
26	158378	16	1220.2
26	169634	17	1220.2
26	169635	18	1220.2
26	176221	19	1220.2
26	193893	20	1220.2
26	215748	21	1220.2
26	215749	22	1220.2
26	222357	23	1220.2
26	222358	24	1220.2
26	246612	25	1220.2
26	262186	26	1220.2
26	268828	27	1220.2
26	268829	28	1220.2
26	275089	29	1220.2
26	291426	30	1220.2
26	313509	31	1220.2
26	313510	32	1220.2
26	319789	33	1220.2
26	319790	34	1220.2
26	341956	35	1219.7656658117
26	357174	36	1214.6325254163
26	363090	37	1209.24978892
26	363091	38	1202.3096017394
26	369007	39	1192.7830994961
26	381249	40	1180.8563417797
26	401496	41	1167.883421587
26	401497	42	1154.325638315
26	407060	43	1141.6809973602
110	17986	3	3.1261287497072
110	17987	4	4.3965252215164
110	42805	5	6.8617852595912
110	59237	6	8.5229705992383
110	65829	7	10.182381257675
110	65830	8	8.9169842399278
110	72416	9	0.973
110	88547	10	0.973
110	111169	11	0.973
110	111170	12	3.0790381960914
110	117764	13	0.973
110	117765	14	2.1454436289668
110	141885	15	7.0114483378455
110	158378	16	5.2416711215854
110	169634	17	7.7532452446997
110	169635	18	8.334252003419
110	176221	19	0.973
110	193893	20	0.973
110	215748	21	4.1385001272933
110	215749	22	4.9249909855885
110	222357	23	2.4301595522492
110	222358	24	8.3345922065948
110	246612	25	9.4700934400081
110	262186	26	10.226579836124
110	268828	27	0.973
110	268829	28	3.2253335715376
110	275089	29	4.2407558724029
110	291426	30	0.973
110	313509	31	5.0148987147512
110	313510	32	1.4110319733819
110	319789	33	0.973
110	319790	34	0.973
110	341956	35	6.2572039875699
110	357174	36	0.973
110	363090	37	0.973
110	363091	38	4.8258508920921
110	369007	39	0.973
110	381249	40	0.973
110	401496	41	0.973
110	401497	42	0.973
110	407060	43	5.1588136619338
110	407061	44	5.0934339869149
110	423319	45	7.891550226373
110	437808	46	6.5858884426705
110	443007	47	10.321925888333
110	443008	48	2.1940029410197
110	448199	49	0.973
110	460080	50	0.973
110	480342	51	0.973
110	480343	52	0.973
110	485513	53	2.0385282810128
110	485514	54	3.7353158998212
110	502335	55	5.7561683356667
110	516999	56	5.7425170238452
110	522176	57	6.2876253523112
110	522177	58	7.9135947485163
110	527357	59	7.9660318119922
109	17986	3	1.9681667215191
109	17987	4	2.0848777350271
109	42805	5	2.5767042224528
109	59237	6	2.5374351908918
109	65829	7	2.5068282209337
109	65830	8	1.8167989107446
109	72416	9	-2.0348346173948
109	88547	10	-3.274455402062
109	111169	11	-4.5
109	111170	12	1.0238971389311
109	117764	13	-0.47993969300296
109	117765	14	0.43984050659929
109	141885	15	2.4814004011219
109	158378	16	1.4020640265662
109	169634	17	1.9650872096419
109	169635	18	1.8297892361529
109	176221	19	-4.5
109	193893	20	-3.4727024910972
109	215748	21	1.4162962283241
109	215749	22	1.4953372959979
109	222357	23	0.34157962212357
109	222358	24	2.2885861576768
109	246612	25	2.2032720476622
109	262186	26	2.0574501876763
109	268828	27	-1.0175702715525
109	268829	28	0.2828672954347
109	275089	29	0.52363141695969
109	291426	30	-0.59730136797298
109	313509	31	0.71724571192171
109	313510	32	-0.21588186577428
109	319789	33	-0.60367696338799
109	319790	34	-0.37794414199889
109	341956	35	1.0540628155228
109	357174	36	-0.43799424646422
109	363090	37	-0.4410324328579
109	363091	38	0.69248874050099
109	369007	39	-0.70231172032654
109	381249	40	-0.87401813381956
109	401496	41	-4.5
109	401497	42	-4.0491660503438
109	407060	43	2.012448851252
109	407061	44	1.583816642873
109	423319	45	2.2328853990184
109	437808	46	1.5059536199551
109	443007	47	2.2459886800498
109	443008	48	0.010366957091257
109	448199	49	-2.3979393568488
109	460080	50	-3.2520425893716
109	480342	51	-3.8313389006071
109	480343	52	-2.1463605987451
109	485513	53	0.71387698068283
109	485514	54	1.6529342174064
109	502335	55	2.179862521519
109	516999	56	1.7345255633816
109	522176	57	1.6366048923461
109	522177	58	1.8629379608436
109	527357	59	1.6270435677376
71	11403	2	1.8798766718246
71	17986	3	3.8480433933437
71	17987	4	5.9329211283708
71	42805	5	8.5096253508236
71	59237	6	11.047060541715
71	65829	7	13.553888762649
71	65830	8	15.370687673394
71	72416	9	13.335853055999
71	88547	10	10.061397653937
71	111169	11	5.5613976539369
71	111170	12	6.585294792868
71	117764	13	6.105355099865
71	117765	14	6.5451956064643
71	141885	15	9.0265960075863
71	158378	16	10.428660034152
71	169634	17	12.393747243794
71	169635	18	14.223536479947
71	176221	19	9.7235364799473
71	193893	20	6.2508339888502
71	215748	21	7.6671302171743
71	215749	22	9.1624675131721
71	222357	23	9.5040471352957
71	222358	24	11.792633292972
71	246612	25	13.995905340635
71	262186	26	16.053355528311
71	268828	27	15.035785256758
71	268829	28	15.318652552193
71	275089	29	15.842283969153
71	291426	30	15.24498260118
71	313509	31	15.962228313102
71	313510	32	15.746346447327
71	319789	33	15.142669483939
71	319790	34	14.76472534194
71	341956	35	15.818788157463
71	357174	36	15.380793910999
71	363090	37	14.939761478141
71	363091	38	15.632250218642
71	369007	39	14.929938498315
71	381249	40	14.055920364496
71	401496	41	9.5559203644959
71	401497	42	5.5067543141521
71	407060	43	7.5192031654041
71	407061	44	9.1030198082771
71	423319	45	11.335905207296
71	437808	46	12.841858827251
71	443007	47	15.0878475073
71	443008	48	15.098214464392
71	448199	49	12.700275107543
71	460080	50	9.4482325181713
71	480342	51	5.6168936175642
71	480343	52	3.4705330188191
71	485513	53	4.184409999502
71	485514	54	5.8373442169084
71	502335	55	8.0172067384274
71	516999	56	9.751732301809
71	522176	57	11.388337194155
71	522177	58	13.251275154999
71	527357	59	14.878318722736
11	3	1	1247.7562254801
11	11403	2	1249.0854919807
11	17986	3	1251.8064551442
11	17987	4	1256.0016416823
11	42805	5	1262.0188235972
11	59237	6	1269.8302336375
11	65829	7	1279.4142295218
11	65830	8	1290.2828894304
11	72416	9	1299.7127116047
11	88547	10	1306.8271564253
11	111169	11	1310.7596375869
11	111170	12	1315.7105905658
11	117764	13	1319.8438622705
11	117765	14	1323.4
11	141885	15	1323.4
11	158378	16	1323.4
11	169634	17	1323.4
11	169635	18	1323.4
11	176221	19	1323.4
11	193893	20	1323.4
11	215748	21	1324.3703246798
11	215749	22	1330.987208611
11	222357	23	1340.4471524851
11	222358	24	1352.2397857781
11	246612	25	1366.2356911187
11	262186	26	1382.289046647
11	268828	27	1397.3248319038
11	268829	28	1412.643484456
11	275089	29	1428.4857684251
11	291426	30	1443.7307510263
11	313509	31	1459.6929793394
11	313510	32	1475.4393257867
11	319789	33	1490.5819952707
11	319790	34	1505.3467206126
11	341956	35	1521.1655087701
11	357174	36	1536.5463026811
11	363090	37	1551.4860641592
11	363091	38	1567.1183143779
11	369007	39	1582.0482528762
11	381249	40	1596.1041732407
11	401496	41	1605.6600936052
11	401497	42	1611.1668479193
11	407060	43	1618.6860510847
11	407061	44	1627.789070893
11	423319	45	1639.1249761003
11	437808	46	1651.9668349276
11	443007	47	1667.0546824349
11	443008	48	1682.1528968992
11	448199	49	1694.8531720068
11	460080	50	1704.301404525
11	480342	51	1709.9182981425
11	480343	52	1711.1946145591
11	485513	53	1707.2367588392
11	485514	54	1701.3994146222
11	502335	55	1693.3822078838
11	516999	56	1683.630475582
11	522176	57	1672.2421383879
11	522177	58	1658.9908632329
11	527357	59	1644.1125445101
10	3	1	1640.9662254801
10	11403	2	1642.2954919807
10	17986	3	1645.0164551442
10	17987	4	1649.2116416823
10	42805	5	1655.2288235972
10	59237	6	1663.0402336375
10	65829	7	1672.6242295218
10	65830	8	1683.4928894304
10	72416	9	1692.9227116047
10	88547	10	1700.0371564253
10	111169	11	1703.9696375869
10	111170	12	1708.2990510857
10	117764	13	1705.9100847684
10	117765	14	1699.3834026148
10	141885	15	1690.3568066072
10	158378	16	1679.9281465731
10	169634	17	1667.5343993293
10	169635	18	1653.3108628493
10	176221	19	1643.5873263694
10	193893	20	1637.3364923805
10	215748	21	1629.7827922003
10	215749	22	1624.0303987699
10	222357	23	1623.4
10	222358	24	1623.4
10	246612	25	1623.4
10	262186	26	1623.4
10	268828	27	1623.4
10	268829	28	1623.4
10	275089	29	1623.4
10	291426	30	1623.4
10	313509	31	1623.4
10	313510	32	1623.4
10	319789	33	1623.4
10	319790	34	1623.4
10	341956	35	1623.4
10	357174	36	1623.4
10	363090	37	1623.4
10	363091	38	1623.4
10	369007	39	1623.4
10	381249	40	1623.4
10	401496	41	1623.4
10	401497	42	1623.4
10	407060	43	1623.4
10	407061	44	1623.4
10	423319	45	1623.4
10	437808	46	1623.4
10	443007	47	1623.4
10	443008	48	1623.4
10	448199	49	1623.4
10	460080	50	1623.4
10	480342	51	1623.4
10	480343	52	1625.8502569606
10	485513	53	1626.6
10	485514	54	1626.6
10	502335	55	1626.6
10	516999	56	1626.6
10	522176	57	1626.6
10	522177	58	1626.6
10	527357	59	1626.6
138	17986	3	2.1732912127287
138	17987	4	4.5792043203637
138	42805	5	5.7459683148977
138	59237	6	5.1419684563581
138	65829	7	7.7911784820368
138	65830	8	3.9011256693212
138	72416	9	0.973
138	88547	10	0.973
138	111169	11	0.973
138	111170	12	0.973
138	117764	13	1.4811962777383
138	117765	14	2.941446531208
138	141885	15	5.005105331718
138	158378	16	5.1078332881186
138	169634	17	5.8069897504262
138	169635	18	8.6073764607354
138	176221	19	0.973
138	193893	20	2.4544194027847
138	215748	21	3.7179149907892
138	215749	22	1.2138832453532
138	222357	23	3.8196168845526
138	222358	24	0.973
138	246612	25	0.973
138	262186	26	2.869108583257
138	268828	27	0.973
138	268829	28	0.973
138	275089	29	0.973
138	291426	30	0.973
138	313509	31	2.8696397954005
138	313510	32	3.3232651723094
138	319789	33	0.973
138	319790	34	3.9246961006187
138	341956	35	5.9244213100734
138	357174	36	7.284057830717
138	363090	37	9.7240575644699
138	363091	38	0.973
138	369007	39	0.973
138	381249	40	2.4209840170472
138	401496	41	2.5974095188717
138	401497	42	3.4382992924593
138	407060	43	0.973
138	407061	44	3.1104997561113
138	423319	45	2.0068463315473
138	437808	46	0.973
138	443007	47	4.7751027997046
138	443008	48	0.973
138	448199	49	1.6170769950754
138	460080	50	0.973
138	480342	51	0.973
138	480343	52	0.973
138	485513	53	1.8355573135962
138	485514	54	0.973
138	502335	55	4.3373984877223
138	516999	56	4.6461767843144
138	522176	57	6.2589892405173
138	522177	58	5.1335143770989
138	527357	59	6.9960892006687
138	539017	60	2.5557605626982
138	557673	61	2.9549228460238
138	557674	62	0.973
138	562532	63	1.86696252675
137	17986	3	1.3682811009465
137	17987	4	2.5007992214756
137	42805	5	2.304459202569
137	59237	6	1.5861055656103
137	65829	7	2.1853361040819
137	65830	8	0.70206564061189
137	72416	9	-4.5
137	88547	10	-3.7307087568101
137	111169	11	-1.0219902677415
137	111170	12	-0.5389009921113
137	117764	13	0.37420136113651
137	117765	14	1.5810179376742
137	141885	15	2.2645391314989
137	158378	16	1.7747161863372
137	169634	17	1.7105175084434
137	169635	18	2.276243982045
137	176221	19	-0.43135259935582
137	193893	20	0.20704323679674
137	215748	21	0.59424483645707
137	215749	22	-0.22460451812949
137	222357	23	0.59841151710134
137	222358	24	-0.82556782148313
137	246612	25	-0.28716475677211
137	262186	26	0.33843295355327
137	268828	27	-0.2586442497326
137	268829	28	-2.4290823168378
137	275089	29	-3.2414912383654
137	291426	30	-4.5
137	313509	31	1.8089185756631
137	313510	32	1.5605140247615
137	319789	33	-1.0309041150941
137	319790	34	1.7607695890358
137	341956	35	2.2276340794051
137	357174	36	2.2286264948547
137	363090	37	2.5107559222262
137	363091	38	-0.73515321367862
137	369007	39	-0.40398477709387
137	381249	40	0.20059198776726
137	401496	41	0.24902534361463
137	401497	42	0.49925779651385
137	407060	43	-0.50154726377223
137	407061	44	0.3984479329316
137	423319	45	0.033573403069749
137	437808	46	-0.70876706764102
137	443007	47	0.9215171644697
137	443008	48	-0.72485537056346
137	448199	49	-0.08073608141858
137	460080	50	-1.2307094446925
137	480342	51	-3.9589284912334
137	480343	52	-4.1622257480864
137	485513	53	0.68950320902755
137	485514	54	-1.0416678516194
137	502335	55	2.5418741665548
137	516999	56	1.9380381025374
137	522176	57	2.1537052321015
137	522177	58	1.3744604587322
137	527357	59	1.762774355337
137	539017	60	0.2283393128361
137	557673	61	0.34263959701639
137	557674	62	-0.87720819036476
137	562532	63	0.012545942119322
85	11403	2	1.4392818092834
85	17986	3	2.8075629102299
85	17987	4	5.3083621317055
85	42805	5	7.6128213342745
85	59237	6	9.1989268998848
85	65829	7	11.384263003967
85	65830	8	12.086328644579
85	72416	9	7.5863286445787
85	88547	10	3.8556198877686
85	111169	11	2.8336296200271
85	111170	12	2.2947286279158
85	117764	13	2.6689299890523
85	117765	14	4.2499479267265
85	141885	15	6.5144870582254
85	158378	16	8.2892032445626
85	169634	17	9.999720753006
85	169635	18	12.275964735051
85	176221	19	11.844612135695
85	193893	20	12.051655372492
85	215748	21	12.645900208949
85	215749	22	12.42129569082
85	222357	23	13.019707207921
85	222358	24	12.194139386438
85	246612	25	11.906974629666
85	262186	26	12.245407583219
85	268828	27	11.986763333486
85	268829	28	9.5576810166485
85	275089	29	6.3161897782831
85	291426	30	1.8161897782831
85	313509	31	3.6251083539462
85	313510	32	5.1856223787077
85	319789	33	4.1547182636137
85	319790	34	5.9154878526494
85	341956	35	8.1431219320545
85	357174	36	10.371748426909
85	363090	37	12.882504349135
85	363091	38	12.147351135457
85	369007	39	11.743366358363
85	381249	40	11.94395834613
85	401496	41	12.192983689745
85	401497	42	12.692241486259
85	407060	43	12.190694222486
85	407061	44	12.589142155418
85	423319	45	12.622715558488
85	437808	46	11.913948490847
85	443007	47	12.835465655317
85	443008	48	12.110610284753
85	448199	49	12.029874203334
85	460080	50	10.799164758642
85	480342	51	6.8402362674086
85	480343	52	2.6780105193223
85	485513	53	3.3675137283498
85	485514	54	2.3258458767304
85	502335	55	4.8677200432852
85	516999	56	6.8057581458225
85	522176	57	8.959463377924
85	522177	58	10.333923836656
85	527357	59	12.096698191993
85	539017	60	12.325037504829
85	557673	61	12.667677101846
85	557674	62	11.790468911481
85	562532	63	11.8030148536
39	3	1	1120.2
39	11403	2	1120.2
39	17986	3	1123.4
39	17987	4	1123.4
39	42805	5	1123.4
39	59237	6	1123.4
39	65829	7	1123.4
39	65830	8	1123.4
39	72416	9	1123.4
39	88547	10	1123.4
39	111169	11	1124.6054220923
39	111170	12	1126.3324642477
39	117764	13	1126.6
39	117765	14	1126.6
39	141885	15	1126.6
39	158378	16	1126.6
39	169634	17	1126.6
39	169635	18	1126.6
39	176221	19	1126.6
39	193893	20	1126.6
39	215748	21	1126.6
39	215749	22	1126.6
39	222357	23	1126.6
39	222358	24	1126.6
39	246612	25	1126.6
39	262186	26	1126.6
39	268828	27	1126.6
39	268829	28	1126.6
39	275089	29	1126.2618028282
39	291426	30	1126.004418648
39	313509	31	1124.5506552394
39	313510	32	1120.7370236403
39	319789	33	1116.7603708845
39	319790	34	1110.8664398083
39	341956	35	1102.7233178763
39	357174	36	1092.3515694494
39	363090	37	1079.4690651002
39	363091	38	1067.3217139648
39	369007	39	1055.5783476064
39	381249	40	1043.6343892603
39	401496	41	1031.515485755
39	401497	42	1020.6570136967
39	407060	43	1009.3748317245
39	407061	44	1000.4730110945
39	423319	45	991.54745060923
39	437808	46	983.12306146884
39	443007	47	974.04706474436
39	443008	48	965.48361545257
39	448199	49	956.97725488901
39	460080	50	949.34113270938
39	480342	51	944.50438088247
39	480343	52	942.61075151566
39	485513	53	939.61585351491
39	485514	54	939.6228691673
39	502335	55	943.06484878494
39	516999	56	947.87722102743
39	522176	57	954.21248477669
39	522177	58	961.51963368824
39	527357	59	970.07324569702
39	539017	60	978.78831712697
39	557673	61	987.745670056
39	557674	62	996.08274641102
39	562532	63	1004.4286940398
38	3	1	1009.5
38	11403	2	1008.0607181907
38	17986	3	1005.2531552805
38	17987	4	999.94479314878
38	42805	5	992.33197181451
38	59237	6	983.13304491462
38	65829	7	971.74878191066
38	65830	8	959.66245326608
38	72416	9	952.0761246215
38	88547	10	948.22050473373
38	111169	11	945.87728895385
38	111170	12	946.87869637161
38	117764	13	949.46678350327
38	117765	14	953.71673142999
38	141885	15	960.23121848822
38	158378	16	968.52042173278
38	169634	17	978.52014248579
38	169635	18	990.79610722084
38	176221	19	1002.6407193565
38	193893	20	1014.692374729
38	215748	21	1027.338274938
38	215749	22	1039.7595706288
38	222357	23	1052.7792778367
38	222358	24	1064.9734172232
38	246612	25	1076.8803918528
38	262186	26	1089.125799436
38	268828	27	1101.1125627695
38	268829	28	1110.6702437862
38	275089	29	1116.9626168622
38	291426	30	1118.760680994
38	313509	31	1122.015574601
38	313510	32	1125.3177858158
38	319789	33	1126.2913755879
38	319790	34	1126.6
38	341956	35	1129.8
38	357174	36	1129.8
38	363090	37	1129.8
38	363091	38	1129.8
38	369007	39	1129.8
38	381249	40	1129.8
38	401496	41	1130.5633324936
38	401497	42	1136.9702935048
38	407060	43	1142.8951682755
38	407061	44	1151.7969889055
38	423319	45	1160.7225493908
38	437808	46	1169.1469385312
38	443007	47	1178.2229352556
38	443008	48	1186.7863845474
38	448199	49	1195.292745111
38	460080	50	1202.9288672906
38	480342	51	1207.7656191175
38	480343	52	1209.6592484843
38	485513	53	1210.367412456
38	485514	54	1208.1071308327
38	502335	55	1204.6651512151
38	516999	56	1199.8527789726
38	522176	57	1193.5175152233
38	522177	58	1186.2103663118
38	527357	59	1177.656754303
38	539017	60	1168.941682873
38	557673	61	1159.984329944
38	557674	62	1151.647253589
38	562532	63	1143.3013059602
148	17986	3	3.8351988822478
148	17987	4	3.1266669628555
148	42805	5	5.7583180138575
148	59237	6	8.1046519775874
148	65829	7	8.2336811114317
148	65830	8	1.954041687499
148	72416	9	1.8966982146425
148	88547	10	1.8994843767755
148	111169	11	3.9429641883238
148	111170	12	1.4198660544847
148	117764	13	1.1845967560571
148	117765	14	2.6317602648864
148	141885	15	2.4714551695105
148	158378	16	0.973
148	169634	17	0.973
148	169635	18	0.973
148	176221	19	0.973
148	193893	20	0.973
148	215748	21	3.5696783190795
148	215749	22	3.8218219771851
148	222357	23	4.5679349970579
148	222358	24	4.964184944994
148	246612	25	5.5128265797768
148	262186	26	7.5161175743416
148	268828	27	1.8872174914187
148	268829	28	0.973
148	275089	29	2.4003332988328
148	291426	30	1.6716554860126
148	313509	31	3.5192602691051
148	313510	32	2.4683302723793
148	319789	33	1.4533522949676
148	319790	34	2.9686716046047
148	341956	35	0.973
148	357174	36	0.973
148	363090	37	4.5165329867157
148	363091	38	0.973
148	369007	39	0.973
148	381249	40	2.6285475208807
148	401496	41	3.2093933793004
148	401497	42	2.4895488462709
148	407060	43	0.973
148	407061	44	0.973
148	423319	45	2.2128843758983
148	437808	46	3.5012941159016
148	443007	47	1.5071497309059
148	443008	48	1.1536146532311
148	448199	49	1.4890009326532
148	460080	50	2.8325753090043
148	480342	51	0.973
148	480343	52	0.973
148	485513	53	1.8075215249157
148	485514	54	0.973
148	502335	55	2.9341125419967
148	516999	56	0.973
148	522176	57	5.4366198362708
148	522177	58	7.9136900177759
148	527357	59	3.2154229646857
148	539017	60	4.7101460417636
148	557673	61	0.973
148	557674	62	0.973
148	562532	63	1.8297530063296
148	562533	64	4.5802351909868
148	577500	65	2.9141384479485
147	17986	3	2.5855512305163
147	17987	4	1.3408971355064
147	42805	5	2.2887285570381
147	59237	6	2.5865135943983
147	65829	7	2.1262006659992
147	65830	8	0.02284206693218
147	72416	9	0.003567498666234
147	88547	10	0.0043641877127811
147	111169	11	0.63469925760291
147	111170	12	-0.16417236269917
147	117764	13	-0.23711321277078
147	117765	14	0.22634718578774
147	141885	15	0.16742580560967
147	158378	16	-0.2668076623464
147	169634	17	-4.5
147	169635	18	-4.2282091258789
147	176221	19	-0.800241462972
147	193893	20	-0.81709694275632
147	215748	21	2.0607279826421
147	215749	22	1.6234303299105
147	222357	23	1.6281235336326
147	222358	24	1.4965580292046
147	246612	25	1.4618648454314
147	262186	26	1.8550439301334
147	268828	27	-0.0038678033743054
147	268829	28	-0.70788927008398
147	275089	29	0.18891549136024
147	291426	30	-0.060652634385042
147	313509	31	0.53832741382066
147	313510	32	0.18178819178138
147	319789	33	-0.14707937974017
147	319790	34	0.33458196585998
147	341956	35	-0.35040567363612
147	357174	36	-0.3989295004867
147	363090	37	0.82571151116863
147	363091	38	-0.49889763263054
147	369007	39	-0.36174587549176
147	381249	40	0.25132240208331
147	401496	41	0.4192206167616
147	401497	42	0.1775051289238
147	407060	43	-0.47141030959319
147	407061	44	-0.41796934346203
147	423319	45	0.11865081109572
147	437808	46	0.51928167978767
147	443007	47	-0.12964387822431
147	443008	48	-0.24373010091949
147	448199	49	-0.12828722784761
147	460080	50	0.31120884120464
147	480342	51	-0.84817365424733
147	480343	52	-4.5
147	485513	53	0.17377248795565
147	485514	54	-0.34120596516877
147	502335	55	0.75372356169391
147	516999	56	-0.2921825237805
147	522176	57	1.7233704460086
147	522177	58	2.2254107195418
147	527357	59	0.48073307608884
147	539017	60	0.90507062512916
147	557673	61	-0.31036018293817
147	557674	62	-0.62062550389674
147	562532	63	-0.0021811835467815
147	562533	64	0.86920892253984
147	577500	65	0.30898991287686
90	11403	2	1.4645417755703
90	17986	3	4.0500930060865
90	17987	4	5.3909901415929
90	42805	5	7.679718698631
90	59237	6	10.266232293029
90	65829	7	12.392432959029
90	65830	8	12.415275025961
90	72416	9	12.418842524627
90	88547	10	12.42320671234
90	111169	11	13.057905969943
90	111170	12	12.893733607243
90	117764	13	12.656620394473
90	117765	14	12.88296758026
90	141885	15	13.05039338587
90	158378	16	12.783585723524
90	169634	17	8.2835857235237
90	169635	18	4.0553765976448
90	176221	19	3.2551351346728
90	193893	20	2.4380381919165
90	215748	21	4.4987661745586
90	215749	22	6.1221965044691
90	222357	23	7.7503200381017
90	222358	24	9.2468780673063
90	246612	25	10.708742912738
90	262186	26	12.563786842871
90	268828	27	12.559919039497
90	268829	28	11.852029769413
90	275089	29	12.040945260773
90	291426	30	11.980292626388
90	313509	31	12.518620040209
90	313510	32	12.70040823199
90	319789	33	12.55332885225
90	319790	34	12.88791081811
90	341956	35	12.537505144474
90	357174	36	12.138575643987
90	363090	37	12.964287155156
90	363091	38	12.465389522525
90	369007	39	12.103643647033
90	381249	40	12.354966049117
90	401496	41	12.774186665878
90	401497	42	12.951691794802
90	407060	43	12.480281485209
90	407061	44	12.062312141747
90	423319	45	12.180962952843
90	437808	46	12.70024463263
90	443007	47	12.570600754406
90	443008	48	12.326870653487
90	448199	49	12.198583425639
90	460080	50	12.509792266844
90	480342	51	11.661618612596
90	480343	52	7.1616186125962
90	485513	53	7.3353911005519
90	485514	54	6.9941851353831
90	502335	55	7.747908697077
90	516999	56	7.4557261732965
90	522176	57	9.1790966193051
90	522177	58	11.404507338847
90	527357	59	11.885240414936
90	539017	60	12.790311040065
90	557673	61	12.479950857127
90	557674	62	11.85932535323
90	562532	63	11.857144169683
90	562533	64	12.726353092223
90	577500	65	13.0353430051
49	3	1	745.69
49	11403	2	747.15454177557
49	17986	3	751.20463478166
49	17987	4	756.59562492325
49	42805	5	764.27534362188
49	59237	6	774.54157591491
49	65829	7	786.93400887394
49	65830	8	799.3492838999
49	72416	9	811.76812642453
49	88547	10	824.19133313687
49	111169	11	837.24923910681
49	111170	12	850.14297271405
49	117764	13	862.79959310852
49	117765	14	875.68256068879
49	141885	15	888.73295407466
49	158378	16	901.51653979818
49	169634	17	909.8001255217
49	169635	18	913.85550211935
49	176221	19	916.12139720489
49	193893	20	914.32132455406
49	215748	21	909.8225583795
49	215749	22	903.70036187504
49	222357	23	895.95004183693
49	222358	24	886.70316376963
49	246612	25	875.99442085689
49	262186	26	863.43063401402
49	268828	27	850.87071497452
49	268829	28	839.01868520511
49	275089	29	826.97773994434
49	291426	30	814.99744731795
49	313509	31	802.47882727774
49	313510	32	789.77841904575
49	319789	33	777.2250901935
49	319790	34	764.33717937539
49	341956	35	751.79967423092
49	357174	36	739.66109858693
49	363090	37	726.69681143177
49	363091	38	714.23142190925
49	369007	39	702.12777826221
49	381249	40	689.7728122131
49	401496	41	676.99862554722
49	401497	42	664.04693375242
49	407060	43	651.56665226721
49	407061	44	639.50434012546
49	423319	45	627.32337717262
49	437808	46	614.62313253999
49	443007	47	602.05253178558
49	443008	48	589.72566113209
49	448199	49	577.52707770646
49	460080	50	565.01728543961
49	480342	51	553.35566682702
49	480343	52	546.22916605823
49	485513	53	539.49839667447
49	485514	54	536.19346639098
49	502335	55	537.95442586403
49	516999	56	542.58240388144
49	522176	57	549.07348387879
49	522177	58	557.1382829039
49	527357	59	565.54303660905
49	539017	60	574.58781907461
49	557673	61	583.41312757024
49	557674	62	591.79955520849
49	562532	63	600.18444040336
49	562533	64	609.18399443598
49	577500	65	618.40205343985
48	3	1	1520.2
48	11403	2	1520.2
48	17986	3	1520.2
48	17987	4	1520.2
48	42805	5	1523.4
48	59237	6	1523.4
48	65829	7	1523.4
48	65830	8	1523.4
48	72416	9	1523.4
48	88547	10	1523.4
48	111169	11	1523.4
48	111170	12	1523.4
48	117764	13	1523.4
48	117765	14	1523.4
48	141885	15	1523.4
48	158378	16	1523.4
48	169634	17	1523.4
48	169635	18	1523.4
48	176221	19	1525.1572055902
48	193893	20	1526.6
48	215748	21	1526.6
48	215749	22	1526.6
48	222357	23	1526.6
48	222358	24	1526.6
48	246612	25	1526.6
48	262186	26	1526.6
48	268828	27	1526.6
48	268829	28	1526.6
48	275089	29	1526.6
48	291426	30	1526.6
48	313509	31	1526.6
48	313510	32	1526.6
48	319789	33	1526.6
48	319790	34	1526.6
48	341956	35	1526.6
48	357174	36	1526.6
48	363090	37	1526.6
48	363091	38	1526.6
48	369007	39	1526.6
48	381249	40	1526.6
48	401496	41	1526.6
48	401497	42	1526.6
48	407060	43	1526.6
48	407061	44	1526.6
48	423319	45	1526.6
48	437808	46	1526.6
48	443007	47	1526.6
48	443008	48	1526.6
48	448199	49	1526.6
48	460080	50	1526.6
48	480342	51	1526.6
48	480343	52	1526.3325641125
48	485513	53	1523.9141653085
48	485514	54	1518.1093225452
48	502335	55	1510.9206563544
48	516999	56	1505.1479583149
48	522176	57	1498.6576719451
48	522177	58	1490.5938589573
48	527357	59	1482.1901328538
48	539017	60	1473.1464562426
48	557673	61	1464.3222267674
48	557674	62	1455.9368244902
48	562532	63	1447.5529644677
48	562533	64	1438.5545107596
48	577500	65	1429.3375787956
102	17986	3	4.0048242710863
102	17987	4	4.8815335146976
102	42805	5	6.4036492318107
102	59237	6	6.6593966034071
102	65829	7	7.7581027961348
102	65830	8	0.973
102	72416	9	0.973
102	88547	10	4.1921792798843
102	111169	11	4.801012897728
102	111170	12	7.879342009947
102	117764	13	7.5722793451797
102	117765	14	10.323452842806
102	141885	15	0.973
102	158378	16	2.9160686244916
102	169634	17	3.277477667611
102	169635	18	0.973
102	176221	19	5.1148828570331
102	193893	20	0.973
102	215748	21	1.6312645267718
102	215749	22	1.7489836052204
102	222357	23	2.1756355861592
102	222358	24	3.4528536956823
102	246612	25	0.973
102	262186	26	2.8434422294664
102	268828	27	2.4105252557045
102	268829	28	0.973
102	275089	29	0.973
102	291426	30	4.9090366400139
102	313509	31	5.3549703621089
102	313510	32	8.4324702506247
102	319789	33	7.5408504078528
102	319790	34	7.1962755229705
102	341956	35	0.973
102	357174	36	5.5258739797553
102	363090	37	1.7155800098709
102	363091	38	0.973
102	369007	39	0.973
102	381249	40	0.973
102	401496	41	2.1683572432652
102	401497	42	5.0200053843413
102	407060	43	7.1500930822189
102	407061	44	7.8123046074284
102	423319	45	7.2979758802208
102	437808	46	4.1757598535326
102	443007	47	5.2070451094127
102	443008	48	2.1609228595412
102	448199	49	0.973
102	460080	50	5.4089021385566
102	480342	51	0.973
102	480343	52	5.0287240134231
102	485513	53	1.5990845229829
102	485514	54	0.973
102	502335	55	0.973
102	516999	56	0.973
102	522176	57	1.6751239422178
102	522177	58	4.5109740476045
102	527357	59	6.4435710045476
102	539017	60	6.6106436295222
102	557673	61	5.9368377998841
102	557674	62	6.6037038993227
102	562532	63	6.4749751758492
102	562533	64	0.973
102	577500	65	1.4505905938164
102	590662	66	2.5110802757969
102	594857	67	1.7800942027546
102	594858	68	0.973
102	599052	69	4.0287613576407
102	609294	70	0.973
101	17986	3	2.3003797754413
101	17987	4	2.0656206130283
101	42805	5	2.1959824980702
101	59237	6	1.8642573473975
101	65829	7	1.8914171871962
101	65830	8	-4.5
101	72416	9	-4.2357227181522
101	88547	10	1.9212820225162
101	111169	11	1.754513483448
101	111170	12	2.5011860015104
101	117764	13	1.9429106110707
101	117765	14	2.3486859005209
101	141885	15	-0.83881860112306
101	158378	16	0.26195232574828
101	169634	17	0.34983377945609
101	169635	18	-0.69006379465573
101	176221	19	0.86652360756416
101	193893	20	-0.45667910834309
101	215748	21	-0.1188572550891
101	215749	22	-0.081747675570661
101	222357	23	0.044760996173137
101	222358	24	0.40264318140689
101	246612	25	-0.80941123913508
101	262186	26	0.2519745542435
101	268828	27	0.11649497989723
101	268829	28	-4.5
101	275089	29	-4.5
101	291426	30	2.0657332659233
101	313509	31	1.7960516993888
101	313510	32	2.4722302012146
101	319789	33	1.7938292987179
101	319790	34	1.4697253126635
101	341956	35	-1.0025884041796
101	357174	36	0.99068187442608
101	363090	37	-0.10324899451807
101	363091	38	-3.1167489550188
101	369007	39	-4.2624647607328
101	381249	40	-3.5940019779943
101	401496	41	0.84201734700298
101	401497	42	2.2890779294772
101	407060	43	2.5464746724581
101	407061	44	2.2241574415937
101	423319	45	1.7162051725201
101	437808	46	0.66232468344975
101	443007	47	0.8902642711997
101	443008	48	0.018890861235558
101	448199	49	-1.2089775513625
101	460080	50	0.96937907773536
101	480342	51	-0.63927528518252
101	480343	52	0.84096964017954
101	485513	53	-0.13785331421532
101	485514	54	-4.2526383633143
101	502335	55	-4.5
101	516999	56	-2.2215582954848
101	522176	57	0.41200561902951
101	522177	58	2.1567973947851
101	527357	59	2.4170442613075
101	539017	60	1.9668976987712
101	557673	61	1.4463370547164
101	557674	62	1.4546392554184
101	562532	63	1.2552961073151
101	562533	64	-0.51985572420526
101	577500	65	-0.1708022775827
101	590662	66	0.14219819458667
101	594857	67	-0.073472893727013
101	594858	68	-0.456072164746
101	599052	69	0.58943997505121
101	609294	70	-0.31010015492793
67	11403	2	2.4864454656141
67	17986	3	4.7868252410553
67	17987	4	6.8524458540836
67	42805	5	9.0484283521539
67	59237	6	10.912685699551
67	65829	7	12.804102886748
67	65830	8	8.3041028867476
67	72416	9	4.0683801685953
67	88547	10	5.9896621911116
67	111169	11	7.7441756745595
67	111170	12	10.24536167607
67	117764	13	12.188272287141
67	117765	14	14.536958187662
67	141885	15	13.698139586538
67	158378	16	13.960091912287
67	169634	17	14.309925691743
67	169635	18	13.619861897087
67	176221	19	14.486385504651
67	193893	20	14.029706396308
67	215748	21	13.910849141219
67	215749	22	13.829101465648
67	222357	23	13.873862461822
67	222358	24	14.276505643228
67	246612	25	13.467094404093
67	262186	26	13.719068958337
67	268828	27	13.835563938234
67	268829	28	9.3355639382341
67	275089	29	4.8355639382341
67	291426	30	6.9012972041574
67	313509	31	8.6973489035462
67	313510	32	11.169579104761
67	319789	33	12.963408403479
67	319790	34	14.433133716142
67	341956	35	13.430545311963
67	357174	36	14.421227186389
67	363090	37	14.317978191871
67	363091	38	11.201229236852
67	369007	39	6.938764476119
67	381249	40	3.3447624981247
67	401496	41	4.1867798451277
67	401497	42	6.4758577746049
67	407060	43	9.0223324470631
67	407061	44	11.246489888657
67	423319	45	12.962695061177
67	437808	46	13.625019744627
67	443007	47	14.515284015826
67	443008	48	14.534174877062
67	448199	49	13.325197325699
67	460080	50	14.294576403435
67	480342	51	13.655301118252
67	480343	52	14.496270758432
67	485513	53	14.358417444216
67	485514	54	10.105779080902
67	502335	55	5.6057790809022
67	516999	56	3.3842207854174
67	522176	57	3.796226404447
67	522177	58	5.9530237992321
67	527357	59	8.3700680605395
67	539017	60	10.336965759311
67	557673	61	11.783302814027
67	557674	62	13.237942069446
67	562532	63	14.493238176761
67	562533	64	13.973382452555
67	577500	65	13.802580174973
67	590662	66	13.944778369559
67	594857	67	13.871305475832
67	594858	68	13.415233311086
67	599052	69	14.004673286138
67	609294	70	13.69457313121
3	3	1	1120.2
3	11403	2	1120.2
3	17986	3	1120.2
3	17987	4	1120.2
3	42805	5	1120.2
3	59237	6	1120.2
3	65829	7	1120.2
3	65830	8	1120.2
3	72416	9	1120.2
3	88547	10	1120.2
3	111169	11	1120.2
3	111170	12	1120.2
3	117764	13	1120.2
3	117765	14	1120.2
3	141885	15	1120.2
3	158378	16	1120.2
3	169634	17	1120.2
3	169635	18	1120.3640832717
3	176221	19	1121.913125879
3	193893	20	1127.1796165948
3	215748	21	1136.6340142287
3	215749	22	1146.4125650076
3	222357	23	1156.2227662646
3	222358	24	1166.3176763153
3	246612	25	1175.8402520807
3	262186	26	1185.5409989283
3	268828	27	1195.3241193183
3	268829	28	1201.925291943
3	275089	29	1205.3445168024
3	291426	30	1210.4332224572
3	313509	31	1217.1721077004
3	313510	32	1226.8333966405
3	319789	33	1239.5067650647
3	319790	34	1253.9398987808
3	341956	35	1267.3704440928
3	357174	36	1281.7916712792
3	363090	37	1296.1096494711
3	363091	38	1307.3108787079
3	369007	39	1314.249643184
3	381249	40	1317.49492466
3	401496	41	1319.9383873315
3	401497	42	1320.2
3	407060	43	1323.4
3	407061	44	1323.4
3	423319	45	1323.4
3	437808	46	1323.4
3	443007	47	1323.4
3	443008	48	1323.4
3	448199	49	1323.4
3	460080	50	1323.4
3	480342	51	1323.4
3	480343	52	1323.4
3	485513	53	1323.4
3	485514	54	1323.4
3	502335	55	1323.4
3	516999	56	1325.0934555259
3	522176	57	1326.6
3	522177	58	1326.6
3	527357	59	1326.6
3	539017	60	1326.6
3	557673	61	1326.6
3	557674	62	1326.6
3	562532	63	1326.6
3	562533	64	1326.6
3	577500	65	1326.6
3	590662	66	1326.6
3	594857	67	1326.6
3	594858	68	1326.6
3	599052	69	1326.6
3	609294	70	1326.6
2	3	1	909.5
2	11403	2	907.01355453439
2	17986	3	902.22672929333
2	17987	4	895.37428343925
2	42805	5	886.32585508709
2	59237	6	875.41316938754
2	65829	7	862.60906650079
2	65830	8	854.30496361405
2	72416	9	850.23658344545
2	88547	10	844.24692125434
2	111169	11	836.50274557978
2	111170	12	826.25738390371
2	117764	13	814.06911161657
2	117765	14	799.53215342891
2	141885	15	785.83401384237
2	158378	16	771.87392193008
2	169634	17	757.56399623834
2	169635	18	743.94761791788
2	176221	19	729.57096304599
2	193893	20	716.73695854257
2	215748	21	706.57598577125
2	215749	22	696.79743499239
2	222357	23	686.98723373536
2	222358	24	676.8923236847
2	246612	25	667.36974791929
2	262186	26	657.66900107171
2	268828	27	647.88588068169
2	268829	28	641.28470805698
2	275089	29	637.86548319758
2	291426	30	633.20299509016
2	313509	31	627.72962324134
2	313510	32	622.21311182193
2	319789	33	620.2
2	319790	34	620.2
2	341956	35	620.2
2	357174	36	620.2
2	363090	37	620.2
2	363091	38	620.2
2	369007	39	620.2
2	381249	40	619.58304520402
2	401496	41	616.43128867977
2	401497	42	609.97295669811
2	407060	43	600.95062425104
2	407061	44	589.70413436239
2	423319	45	576.74143930121
2	437808	46	563.11641955658
2	443007	47	548.60113554076
2	443008	48	534.0669606637
2	448199	49	520.741763338
2	460080	50	506.44718693456
2	480342	51	492.79188581631
2	480343	52	478.29561505788
2	485513	53	463.93719761366
2	485514	54	453.83141853276
2	502335	55	448.22563945186
2	516999	56	445.72672776296
2	522176	57	448.84480773801
2	522177	58	454.79783153724
2	527357	59	463.16789959778
2	539017	60	473.50486535709
2	557673	61	485.28816817112
2	557674	62	498.52611024056
2	562532	63	513.01934841732
2	562533	64	526.99273086988
2	577500	65	540.79531104485
2	590662	66	554.74008941441
2	594857	67	568.61139489024
2	594858	68	582.02662820133
2	599052	69	596.03130148747
2	609294	70	609.72587461868
112	17986	3	3.984418650938
112	17987	4	3.8808940700597
112	42805	5	4.2705810860773
112	59237	6	6.9180063698609
112	65829	7	9.0766091985241
112	65830	8	2.5633225797012
112	72416	9	1.6564870372094
112	88547	10	0.973
112	111169	11	3.6936662766741
112	111170	12	0.973
112	117764	13	0.973
112	117765	14	0.973
112	141885	15	0.973
112	158378	16	5.0295010847325
112	169634	17	5.3687656066539
112	169635	18	8.7383259985106
112	176221	19	6.9194557747999
112	193893	20	0.973
112	215748	21	2.1871934273574
112	215749	22	3.5869834634944
112	222357	23	2.5115414735585
112	222358	24	0.973
112	246612	25	1.3550228740424
112	262186	26	3.0417553974936
112	268828	27	0.973
112	268829	28	0.973
112	275089	29	0.973
112	291426	30	3.6618852569831
112	313509	31	4.1846254721458
112	313510	32	6.7523122916092
112	319789	33	6.0881444792764
112	319790	34	6.1735433125635
112	341956	35	1.6283652986778
112	357174	36	2.2295160253985
112	363090	37	1.3398576919283
112	363091	38	3.2395483204856
112	369007	39	1.7654126499674
112	381249	40	0.973
112	401496	41	0.973
112	401497	42	0.973
112	407060	43	3.9238157755252
112	407061	44	6.4134948229166
112	423319	45	8.775579485372
112	437808	46	5.6596044533711
112	443007	47	0.973
112	443008	48	3.4746885490273
112	448199	49	0.973
112	460080	50	1.5384620840081
112	480342	51	0.973
112	480343	52	0.973
112	485513	53	4.7000790480123
112	485514	54	6.2907273222
112	502335	55	6.1041523307905
112	516999	56	3.4938299640842
112	522176	57	2.5520534973764
112	522177	58	0.973
112	527357	59	0.973
112	539017	60	2.1951692337598
112	557673	61	5.4505589096606
112	557674	62	0.973
112	562532	63	3.4474262777096
112	562533	64	0.973
112	577500	65	0.973
112	590662	66	3.5457916631762
112	594857	67	0.973
112	594858	68	0.973
112	599052	69	3.8677637339228
112	609294	70	1.4682435024274
111	17986	3	2.5080576555803
111	17987	4	1.679407831165
111	42805	5	1.5080662450055
111	59237	6	2.221823833324
111	65829	7	2.4422728469595
111	65830	8	0.22393898241161
111	72416	9	-0.076028842129745
111	88547	10	-0.4207263218239
111	111169	11	0.59265052308329
111	111170	12	-3.3104024963456
111	117764	13	-3.3591913949
111	117765	14	-0.30182829091791
111	141885	15	-0.55854384021368
111	158378	16	2.0700068679173
111	169634	17	1.7627893261844
111	169635	18	2.5280241468223
111	176221	19	1.591504248488
111	193893	20	-0.87927338609006
111	215748	21	0.10855594426394
111	215749	22	0.5430426526349
111	222357	23	0.18493673645426
111	222358	24	-0.39689575319644
111	246612	25	-0.17662184832152
111	262186	26	0.36699160824064
111	268828	27	-0.43853315399739
111	268829	28	-4.2844767909148
111	275089	29	-4.2056072543465
111	291426	30	1.707885863143
111	313509	31	1.5787855621893
111	313510	32	2.2670871848008
111	319789	33	1.6323608261533
111	319790	34	1.4315626623852
111	341956	35	-0.084264083998278
111	357174	36	0.11335075821262
111	363090	37	-0.18021373965312
111	363091	38	0.43328170210589
111	369007	39	-0.046811996819452
111	381249	40	-0.43826364937704
111	401496	41	-2.145463113905
111	401497	42	-4.3800608757651
111	407060	43	1.4207329956349
111	407061	44	2.143170344457
111	423319	45	2.4607030845713
111	437808	46	1.1971339702365
111	443007	47	-0.53575437369291
111	443008	48	0.49796881384682
111	448199	49	-0.90713462708518
111	460080	50	-0.10438773266505
111	480342	51	-1.4393547402587
111	480343	52	-3.1293423960567
111	485513	53	1.4689687820617
111	485514	54	1.7923331940547
111	502335	55	1.4670560838663
111	516999	56	0.52715846640058
111	522176	57	0.2062373832101
111	522177	58	-0.41893128026277
111	527357	59	-0.43958454357926
111	539017	60	0.11893647396937
111	557673	61	1.1056191913551
111	557674	62	-0.67465682404581
111	562532	63	0.48522780002095
111	562533	64	-0.52528288869653
111	577500	65	-0.46179864418227
111	590662	66	0.54845692720264
111	594857	67	-0.25863193974365
111	594858	68	-0.35542477364652
111	599052	69	0.6521811563056
111	609294	70	-0.1392172827851
72	11403	2	1.8839627243113
72	17986	3	4.3920203798916
72	17987	4	6.0714282110566
72	42805	5	7.5794944560621
72	59237	6	9.8013182893861
72	65829	7	12.243591136346
72	65830	8	12.467530118757
72	72416	9	12.391501276628
72	88547	10	11.970774954804
72	111169	11	12.563425477887
72	111170	12	9.2530229815413
72	117764	13	5.8938315866413
72	117765	14	5.5920032957234
72	141885	15	5.0334594555098
72	158378	16	7.103466323427
72	169634	17	8.8662556496114
72	169635	18	11.394279796434
72	176221	19	12.985784044922
72	193893	20	12.106510658832
72	215748	21	12.215066603096
72	215749	22	12.75810925573
72	222357	23	12.943045992185
72	222358	24	12.546150238988
72	246612	25	12.369528390667
72	262186	26	12.736519998907
72	268828	27	12.29798684491
72	268829	28	8.0135100539953
72	275089	29	3.8079027996488
72	291426	30	5.5157886627918
72	313509	31	7.0945742249811
72	313510	32	9.3616614097819
72	319789	33	10.994022235935
72	319790	34	12.42558489832
72	341956	35	12.341320814322
72	357174	36	12.454671572535
72	363090	37	12.274457832882
72	363091	38	12.707739534987
72	369007	39	12.660927538168
72	381249	40	12.222663888791
72	401496	41	10.077200774886
72	401497	42	5.6971398991209
72	407060	43	7.1178728947558
72	407061	44	9.2610432392128
72	423319	45	11.721746323784
72	437808	46	12.918880294021
72	443007	47	12.383125920328
72	443008	48	12.881094734175
72	448199	49	11.973960107089
72	460080	50	11.869572374424
72	480342	51	10.430217634166
72	480343	52	7.3008752381089
72	485513	53	8.7698440201706
72	485514	54	10.562177214225
72	502335	55	12.029233298092
72	516999	56	12.556391764492
72	522176	57	12.762629147702
72	522177	58	12.343697867439
72	527357	59	11.90411332386
72	539017	60	12.02304979783
72	557673	61	13.128668989185
72	557674	62	12.454012165139
72	562532	63	12.93923996516
72	562533	64	12.413957076463
72	577500	65	11.952158432281
72	590662	66	12.500615359484
72	594857	67	12.24198341974
72	594858	68	11.886558646093
72	599052	69	12.538739802399
72	609294	70	12.399522519614
13	3	1	1239.8563038045
13	11403	2	1241.1884884987
13	17986	3	1244.2941668919
13	17987	4	1248.5873854519
13	42805	5	1253.9469853918
13	59237	6	1260.8776778302
13	65829	7	1269.5353463196
13	65830	8	1278.3513661823
13	72416	9	1287.1136246524
13	88547	10	1295.5783798018
13	111169	11	1304.4622090368
13	111170	12	1311.0051917783
13	117764	13	1315.4414321122
13	117765	14	1319.7486845716
13	141885	15	1320.2
13	158378	16	1320.2
13	169634	17	1320.2
13	169635	18	1320.2
13	176221	19	1320.2
13	193893	20	1320.2
13	215748	21	1320.2
13	215749	22	1320.2
13	222357	23	1320.2
13	222358	24	1320.2
13	246612	25	1320.2
13	262186	26	1320.2
13	268828	27	1320.2
13	268829	28	1320.2
13	275089	29	1320.2
13	291426	30	1319.9917928852
13	313509	31	1319.5283426633
13	313510	32	1317.6776829569
13	319789	33	1313.607041204
13	319790	34	1305.7955722675
13	341956	35	1297.0689868599
13	357174	36	1288.2622507872
13	363090	37	1279.5829443968
13	363091	38	1270.5972631997
13	369007	39	1261.6446829077
13	381249	40	1253.0020001723
13	401496	41	1245.876380917
13	401497	42	1241.8479160018
13	407060	43	1236.6975316757
13	407061	44	1229.6301039993
13	423319	45	1219.4874534189
13	437808	46	1206.6512229648
13	443007	47	1194.2680970445
13	443008	48	1181.3870023103
13	448199	49	1169.4130422032
13	460080	50	1157.5434698288
13	480342	51	1147.1132521946
13	480343	52	1139.8123769565
13	485513	53	1131.0470832442
13	485514	54	1120.6779687496
13	502335	55	1109.915697351
13	516999	56	1098.7090266189
13	522176	57	1087.294021033
13	522177	58	1076.2537111974
13	527357	59	1065.606569569
13	539017	60	1054.8530501325
13	557673	61	1043.1106553553
13	557674	62	1031.9716794605
13	562532	63	1020.3987116362
13	562533	64	1009.2955613581
13	577500	65	998.60544777035
13	590662	66	987.4247895765
13	594857	67	976.47545402024
13	594858	68	965.84401344702
13	599052	69	954.62925642261
13	609294	70	943.53901653666
12	3	1	1833.0663038045
12	11403	2	1834.3984884987
12	17986	3	1837.5041668919
12	17987	4	1841.7973854519
12	42805	5	1847.1569853918
12	59237	6	1854.0876778302
12	65829	7	1862.7453463196
12	65830	8	1871.5613661823
12	72416	9	1880.3236246524
12	88547	10	1888.7883798018
12	111169	11	1897.6722090368
12	111170	12	1904.2151917783
12	117764	13	1908.0843748569
12	117765	14	1906.7626339435
12	141885	15	1901.7526356555
12	158378	16	1894.649169332
12	169634	17	1885.7829136824
12	169635	18	1874.388633886
12	176221	19	1861.4028498411
12	193893	20	1849.2963391822
12	215748	21	1837.0812725791
12	215749	22	1824.3231633234
12	222357	23	1811.3801173312
12	222358	24	1798.8339670922
12	246612	25	1786.4644387016
12	262186	26	1773.7279187027
12	268828	27	1761.4299318577
12	268829	28	1753.4164218038
12	275089	29	1749.6085190041
12	291426	30	1744.0993623641
12	313509	31	1737.0195504225
12	313510	32	1727.8565412513
12	319789	33	1717.6817347486
12	319790	34	1708.0655722675
12	341956	35	1699.3389868599
12	357174	36	1690.5322507872
12	363090	37	1681.8529443968
12	363091	38	1672.8672631997
12	369007	39	1663.9146829077
12	381249	40	1655.2720001723
12	401496	41	1648.146380917
12	401497	42	1644.1179160018
12	407060	43	1639.2080640481
12	407061	44	1633.2475789889
12	423319	45	1627.4988420081
12	437808	46	1626.6
12	443007	47	1626.6
12	443008	48	1626.6
12	448199	49	1626.6
12	460080	50	1626.6
12	480342	51	1626.6
12	480343	52	1626.6
12	485513	53	1626.389617372
12	485514	54	1624.6737230698
12	502335	55	1619.3022709896
12	516999	56	1613.6395133094
12	522176	57	1607.9320105165
12	522177	58	1602.4118555987
12	527357	59	1597.0882847845
12	539017	60	1591.7115250662
12	557673	61	1585.8403276777
12	557674	62	1580.2708397302
12	562532	63	1574.4843558181
12	562533	64	1568.9327806791
12	577500	65	1563.5877238852
12	590662	66	1557.9973947883
12	594857	67	1552.5227270101
12	594858	68	1547.2070067235
12	599052	69	1541.5996282113
12	609294	70	1536.0545082683
118	17986	3	3.7655281694006
118	17987	4	4.2715510365451
118	42805	5	5.1559063609206
118	59237	6	5.0180149026779
118	65829	7	5.7585364554222
118	65830	8	6.7322303963748
118	72416	9	8.0016899557128
118	88547	10	7.9543742351146
118	111169	11	7.7137516949238
118	111170	12	4.3883994995344
118	117764	13	0.973
118	117765	14	3.7938303687369
118	141885	15	3.2505706985281
118	158378	16	3.432983975569
118	169634	17	1.9864660843947
118	169635	18	2.6028701065572
118	176221	19	0.973
118	193893	20	0.973
118	215748	21	0.973
118	215749	22	0.973
118	222357	23	4.5372667791711
118	222358	24	6.9918543433606
118	246612	25	6.6024795172065
118	262186	26	7.8784864603877
118	268828	27	10.946277416676
118	268829	28	12.249740905902
118	275089	29	0.973
118	291426	30	6.8821853545769
118	313509	31	0.973
118	313510	32	0.973
118	319789	33	4.849235918501
118	319790	34	0.973
118	341956	35	1.4744890324691
118	357174	36	0.973
118	363090	37	0.973
118	363091	38	0.973
118	369007	39	4.322573580543
118	381249	40	4.5754623946789
118	401496	41	7.5393579037346
118	401497	42	9.3138198399115
118	407060	43	10.303280272985
118	407061	44	11.352031092146
118	423319	45	0.973
118	437808	46	4.9547044196466
118	443007	47	0.973
118	443008	48	2.3299497151511
118	448199	49	1.8893892203242
118	460080	50	7.0224053072519
118	480342	51	2.6586205624597
118	480343	52	1.1337185645943
118	485513	53	0.973
118	485514	54	1.6781087768845
118	502335	55	4.6749608684929
118	516999	56	2.6603400822909
118	522176	57	0.973
118	522177	58	3.4741114199659
118	527357	59	1.9775347851693
118	539017	60	5.6134566654245
118	557673	61	0.973
118	557674	62	2.401948412604
118	562532	63	6.1241419524236
118	562533	64	0.973
118	577500	65	0.973
118	590662	66	0.973
118	594857	67	0.973
118	594858	68	1.7289778376601
118	599052	69	5.8142342521699
118	609294	70	5.9070277454054
118	624059	71	6.3114306592416
118	624060	72	9.0096097679326
118	627656	73	8.9157923994403
118	627660	74	12.676857215596
118	640379	75	0.973
118	649695	76	4.0198249735218
118	653285	77	1.4032636845272
118	653286	78	2.9661986539905
118	656877	79	2.9279288667423
118	666184	80	4.0190260456363
117	17986	3	2.5047667042818
117	17987	4	1.9626325945137
117	42805	5	1.8950140606379
117	59237	6	1.4890077127609
117	65829	7	1.5188459897414
117	65830	8	1.6013400302036
117	72416	9	1.7274763863767
117	88547	10	1.5060846358305
117	111169	11	1.2945575666315
117	111170	12	0.45874831003603
117	117764	13	-0.81154063446447
117	117765	14	0.34166203073692
117	141885	15	0.2007331083063
117	158378	16	0.23401913109701
117	169634	17	-0.1066004197346
117	169635	18	0.039268443756736
117	176221	19	-0.55240834307841
117	193893	20	-4.5
117	215748	21	-4.5
117	215749	22	-3.7348000804675
117	222357	23	2.0769245595904
117	222358	24	2.5561188762542
117	246612	25	1.8950087713078
117	262186	26	1.9641602390213
117	268828	27	2.4256962361047
117	268829	28	2.3422264609406
117	275089	29	-0.96276871536393
117	291426	30	1.053040487133
117	313509	31	-0.79409824032336
117	313510	32	-0.35907948799431
117	319789	33	0.60630564515013
117	319790	34	-0.45423809655476
117	341956	35	-0.20865529788043
117	357174	36	-4.5
117	363090	37	-3.9781447588699
117	363091	38	-3.3638265589297
117	369007	39	1.8935981794493
117	381249	40	1.5929533046437
117	401496	41	2.3569704439957
117	401497	42	2.4204288027249
117	407060	43	2.2647590353619
117	407061	44	2.1691194649087
117	423319	45	-0.36882435645613
117	437808	46	0.60333162143361
117	443007	47	-0.76525955260731
117	443008	48	-0.00063986063469201
117	448199	49	-0.10815831709187
117	460080	50	1.0783994148951
117	480342	51	0.045881334715521
117	480343	52	-0.30920142009854
117	485513	53	-0.65764669363853
117	485514	54	-0.16125719477423
117	502335	55	0.55675875470043
117	516999	56	0.063878594874403
117	522176	57	-0.6359007751802
117	522177	58	0.27821503612213
[...]
161	958331	192	-0.21348277484067
161	958413	193	-0.020587297640464
161	958414	194	-3.1037741373063
161	958616	195	-4.4339363135281
161	958844	196	-3.6339757291112
161	958926	197	1.4025108364876
161	958927	198	2.5406399961794
161	958971	199	1.9440396489343
161	959089	200	2.0310151410289
161	959251	201	2.157548655523
161	959252	202	2.3247074540984
161	959296	203	-0.00017126956954883
161	959297	204	-0.063835722394288
161	959398	205	-0.84272243641317
161	959517	206	0.12521692106966
161	959559	207	0.79077985412441
161	959560	208	-0.3539409465855
161	959603	209	0.10311279979069
161	959662	210	-1.5835693427084
161	959763	211	-3.5857347696864
161	959764	212	-4.5
161	959806	213	1.9197801076109
161	959807	214	1.401757697016
161	959907	215	1.9767959904857
161	959966	216	2.3841699838871
161	960008	217	1.7644831005051
161	960009	218	0.33724790296983
161	960051	219	-0.63353053780738
161	960110	220	-0.16833397799637
161	960210	221	-3.0084562583205
161	960211	222	-4.5
161	960253	223	-4.222306832741
161	960254	224	-0.74346461173817
161	960270	225	0.75637552952394
161	960311	226	2.2513922318816
161	960327	227	1.8799483751645
161	960328	228	1.3138918183045
161	960344	229	2.4967022985453
161	960345	230	2.3564002977917
161	960416	231	2.1793291823664
161	960417	232	0.10136708989739
161	960434	233	-0.83296884170268
97	11403	2	1.9749580422416
97	17986	3	3.3855614488246
97	17987	4	5.0295449688332
97	42805	5	7.021199995582
97	59237	6	9.1212355842115
97	65829	7	11.339234332275
97	65830	8	12.845974210324
97	72416	9	14.303859548992
97	88547	10	15.739619425244
97	111169	11	16.010335910136
97	111170	12	14.672804195485
97	117764	13	10.26550727654
97	117765	14	6.8811930246273
97	141885	15	8.8130666833226
97	158378	16	10.727209660466
97	169634	17	12.205790166659
97	169635	18	14.400639427183
97	176221	19	15.524386326467
97	193893	20	11.024386326467
97	215748	21	6.5243863264673
97	215749	22	8.2341279063716
97	222357	23	9.9889947615673
97	222358	24	11.385622985765
97	246612	25	13.695617760333
97	262186	26	15.400273751455
97	268828	27	15.58301663716
97	268829	28	11.275395449428
97	275089	29	6.7753954494282
97	291426	30	8.6426096564768
97	313509	31	10.347761955057
97	313510	32	12.907291977075
97	319789	33	14.632193756048
97	319790	34	15.322331129878
97	341956	35	15.556511398943
97	357174	36	15.403006701057
97	363090	37	16.144536426573
97	363091	38	15.338692858934
97	369007	39	16.199785831783
97	381249	40	16.381746992378
97	401496	41	16.298045913458
97	401497	42	16.115974108551
97	407060	43	13.899150054511
97	407061	44	9.8127794697462
97	423319	45	6.6666966485721
97	437808	46	8.497935152303
97	443007	47	11.047153365349
97	443008	48	12.529252058819
97	448199	49	14.080143447539
97	460080	50	15.696895179551
97	480342	51	15.639280057491
97	480343	52	15.700860325669
97	485513	53	15.750632972901
97	485514	54	15.550133189585
97	502335	55	16.491375165132
97	516999	56	16.365560403562
97	522176	57	15.958721935845
97	522177	58	12.175542446662
97	527357	59	8.2546748181967
97	539017	60	6.1796503864787
97	557673	61	5.9147442386871
97	557674	62	8.1128148810624
97	562532	63	10.30188946311
97	562533	64	12.682343080702
97	577500	65	15.173989167056
97	590662	66	15.525200929164
97	594857	67	16.453600937619
97	594858	68	15.583730540078
97	599052	69	15.395699711076
97	609294	70	15.725577721989
97	624059	71	15.245858105391
97	624060	72	15.854315271995
97	627656	73	12.930173909017
97	627660	74	8.4301739090169
97	640379	75	4.4055963485059
97	649695	76	0.25650182607816
97	653285	77	0.08449348542029
97	653286	78	0.047774663687924
97	656877	79	0.0085118161335908
97	666184	80	0.0018357042093694
97	678929	81	0
97	678930	82	0
97	682247	83	0
97	682248	84	0
97	694989	85	0
97	703625	86	0
97	707066	87	0
97	707067	88	0
97	710085	89	0
97	717402	90	0
97	728076	91	0
97	728216	92	0
97	731223	93	0
97	731224	94	0
97	741908	95	0
97	749389	96	0
97	752389	97	0
97	752390	98	0
97	755598	99	0
97	763012	100	0
97	773906	101	0
97	773907	102	0
97	776866	103	0
97	776867	104	0
97	787587	105	0
97	795625	106	0
97	798567	107	0
97	798568	108	0
97	801495	109	0
97	808346	110	0
97	818955	111	0
97	819083	112	0
97	821753	113	0
97	821754	114	0
97	830851	115	0
97	837650	116	0
97	840292	117	0
97	840293	118	0
97	842932	119	0
97	849465	120	0
97	858883	121	0
97	858884	122	0
97	861522	123	0
97	861526	124	0
97	869539	125	1.8586452122312
97	875480	126	4.1615723732626
97	877671	127	5.8611485020025
97	877672	128	7.2422303627478
97	879658	129	8.6602016644307
97	883689	130	5.7133916980885
97	890067	131	6.3048277398366
97	890068	132	8.44010992721
97	891663	133	9.7517723247902
97	891664	134	11.673789458562
97	896528	135	13.277523450789
97	901110	136	14.693342618461
97	902513	137	13.357297443795
97	902514	138	8.8572974437952
97	903914	139	6.744637173578
97	906466	140	5.1817376066858
97	912071	141	4.8600185099326
97	912072	142	7.0225211354241
97	913308	143	8.8523821910413
97	913309	144	10.845590423005
97	916566	145	13.385204894192
97	920382	146	15.728912723161
97	921620	147	16.147251455931
97	921621	148	15.496616177263
97	922854	149	16.193659731119
97	924871	150	16.030631713106
97	929579	151	15.625822625614
97	929580	152	15.720403095104
97	930650	153	16.522961672421
97	930651	154	15.957826180293
97	933061	155	15.416821849349
97	935252	156	15.731922486147
97	936033	157	15.893153205516
97	936034	158	16.403306332326
97	936816	159	15.313753549547
97	937961	160	15.748059904019
97	940859	161	16.030635307429
97	940860	162	15.667399937018
97	941649	163	11.167399937018
97	941650	164	9.8539666643352
97	943664	165	5.916212755673
97	945500	166	7.8979374786824
97	946171	167	10.205572566994
97	946172	168	7.2237862623723
97	946720	169	8.9055033339614
97	947433	170	10.534733244726
97	949159	171	12.969425281459
97	949160	172	13.263239226482
97	949601	173	9.5037821563033
97	949602	174	9.0089382549715
97	950810	175	4.8024874408697
97	952043	176	6.4047489114306
97	952483	177	7.9637809751523
97	952484	178	9.6330193110476
97	952829	179	11.449780819189
97	953466	180	12.907372836579
97	954740	181	14.839189651252
97	954741	182	12.429303470495
97	955086	183	8.4444094854462
97	955087	184	4.811116706469
97	956122	185	6.1988715918789
97	956940	186	8.3611435786643
97	957285	187	9.751822206919
97	957286	188	11.761066045548
97	957631	189	13.075961285649
97	958051	190	15.468660817603
97	958330	191	15.49440304253
97	958331	192	15.28092026769
97	958413	193	15.260332970049
97	958414	194	12.156558832743
97	958616	195	7.7226225192147
97	958844	196	4.0886467901036
97	958926	197	5.4911576265912
97	958927	198	8.0317976227706
97	958971	199	9.9758372717048
97	959089	200	12.006852412734
97	959251	201	14.164401068257
97	959252	202	16.489108522355
97	959296	203	16.488937252786
97	959297	204	16.425101530391
97	959398	205	15.582379093978
97	959517	206	15.707596015048
97	959559	207	16.498375869172
97	959560	208	16.144434922587
97	959603	209	16.247547722377
97	959662	210	14.663978379669
97	959763	211	11.078243609983
97	959764	212	6.5782436099826
97	959806	213	8.4980237175934
97	959807	214	9.8997814146094
97	959907	215	11.876577405095
97	959966	216	14.260747388982
97	960008	217	16.025230489487
97	960009	218	16.362478392457
97	960051	219	15.72894785465
97	960110	220	15.560613876653
97	960210	221	12.552157618333
97	960211	222	8.0521576183329
97	960253	223	3.8298507855919
97	960254	224	3.0863861738537
97	960270	225	3.8427617033776
97	960311	226	6.0941539352592
97	960327	227	7.9741023104238
97	960328	228	9.2879941287283
97	960344	229	11.784696427274
97	960345	230	14.141096725065
97	960416	231	16.320425907432
97	960417	232	16.421792997329
97	960434	233	15.588824155626
63	3	1	617.43379253265
63	11403	2	616.03730068174
63	17986	3	613.64337186253
63	17987	4	610.08698311273
63	42805	5	605.12229608256
63	59237	6	598.67267493055
63	65829	7	590.65470796523
63	65830	8	581.57132598039
63	72416	9	571.45707399656
63	88547	10	560.32759691722
63	111169	11	549.00669634585
63	111170	12	538.36953237821
63	117764	13	531.75134649423
63	117765	14	530.17199184538
63	141885	15	529.8
63	158378	16	529.8
63	169634	17	529.8
63	169635	18	529.8
63	176221	19	529.8
63	193893	20	529.8
63	215748	21	529.8
63	215749	22	529.8
63	222357	23	529.8
63	222358	24	529.8
63	246612	25	529.8
63	262186	26	529.8
63	268828	27	529.8
63	268829	28	529.8
63	275089	29	529.8
63	291426	30	530.1122510182
63	313509	31	533.03712904208
63	313510	32	543.73421915678
63	319789	33	556.82163080045
63	319790	34	570.5263191186
63	341956	35	584.44046431186
63	357174	36	598.21731094251
63	363090	37	612.65740089303
63	363091	38	626.37672356382
63	369007	39	640.86623000795
63	381249	40	655.51848720917
63	401496	41	670.09588000571
63	401497	42	683.08042308202
63	407060	43	695.51218152462
63	407061	44	704.28898467733
63	423319	45	710.25185017775
63	437808	46	718.02061295118
63	443007	47	728.76728366606
63	443008	48	741.59279303737
63	448199	49	755.67293648491
63	460080	50	771.36983166446
63	480342	51	787.00911172195
63	480343	52	802.70997204762
63	485513	53	818.46060502052
63	485514	54	834.01073821011
63	502335	55	850.50211337524
63	516999	56	866.8676737788
63	522176	57	882.82639571464
63	522177	58	895.00193816131
63	527357	59	903.2566129795
63	539017	60	909.43626336598
63	557673	61	915.35100760467
63	557674	62	923.46382248573
63	562532	63	933.76571194884
63	562533	64	946.44805502954
63	577500	65	961.6220441966
63	590662	66	977.14724512576
63	594857	67	993.60084606338
63	594858	68	1009.1845766035
63	599052	69	1024.5802763145
63	609294	70	1040.3058540365
63	624059	71	1055.5517121419
63	624060	72	1071.4060274139
63	627656	73	1084.3362013229
63	627660	74	1092.7663752319
63	640379	75	1097.1719715805
63	649695	76	1097.4284734065
63	653285	77	1097.5129668919
63	653286	78	1097.5607415556
63	656877	79	1097.5692533718
63	666184	80	1097.571089076
63	678929	81	1097.571089076
63	678930	82	1097.571089076
63	682247	83	1097.571089076
63	682248	84	1097.571089076
63	694989	85	1097.571089076
63	703625	86	1097.571089076
63	707066	87	1097.571089076
63	707067	88	1097.571089076
63	710085	89	1097.571089076
63	717402	90	1097.571089076
63	728076	91	1097.571089076
63	728216	92	1097.571089076
63	731223	93	1097.571089076
63	731224	94	1097.571089076
63	741908	95	1097.571089076
63	749389	96	1097.571089076
63	752389	97	1097.571089076
63	752390	98	1097.571089076
63	755598	99	1097.571089076
63	763012	100	1097.571089076
63	773906	101	1097.571089076
63	773907	102	1097.571089076
63	776866	103	1097.571089076
63	776867	104	1097.571089076
63	787587	105	1097.571089076
63	795625	106	1097.571089076
63	798567	107	1097.571089076
63	798568	108	1097.571089076
63	801495	109	1097.571089076
63	808346	110	1097.571089076
63	818955	111	1097.571089076
63	819083	112	1097.571089076
63	821753	113	1097.571089076
63	821754	114	1097.571089076
63	830851	115	1097.571089076
63	837650	116	1097.571089076
63	840292	117	1097.571089076
63	840293	118	1097.571089076
63	842932	119	1097.571089076
63	849465	120	1097.571089076
63	858883	121	1097.571089076
63	858884	122	1097.571089076
63	861522	123	1097.571089076
63	861526	124	1097.571089076
63	869539	125	1099.4297342882
63	875480	126	1103.5826109862
63	877671	127	1109.3855586269
63	877672	128	1116.1025810266
63	879658	129	1122.370283869
63	883689	130	1125.1654184364
63	890067	131	1126.055502856
63	890068	132	1126.6
63	891663	133	1129.8
63	891664	134	1129.8
63	896528	135	1129.8
63	901110	136	1129.8
63	902513	137	1129.8032661814
63	902514	138	1132.5975383849
63	903914	139	1136.3548015475
63	906466	140	1139.6544392024
63	912071	141	1142.9536301586
63	912072	142	1147.8715919718
63	913308	143	1154.1311382888
63	913309	144	1161.8000881967
63	916566	145	1169.0048072056
63	920382	146	1180.1267691342
63	921620	147	1191.5445396506
63	921621	148	1202.5022439866
63	922854	149	1213.8370789064
63	924871	150	1225.5537341548
63	929579	151	1239.4666632521
63	929580	152	1253.5271847795
63	930650	153	1268.3055245515
63	930651	154	1282.5784002012
63	933061	155	1296.3673949353
63	935252	156	1310.4382195475
63	936033	157	1324.6532508945
63	936034	158	1339.3245694613
63	936816	159	1353.0213786428
63	937961	160	1367.1066367596
63	940859	161	1381.4446337864
63	940860	162	1395.4577486386
63	941649	163	1405.4460082442
63	941650	164	1414.2595170058
63	943664	165	1419.5003989325
63	945500	166	1423.9351436526
63	946171	167	1426.1318082808
63	946172	168	1426.4566116311
63	946720	169	1426.6
63	947433	170	1429.8
63	949159	171	1429.8
63	949160	172	1429.8
63	949601	173	1429.8
63	949602	174	1429.8
63	950810	175	1429.8
63	952043	176	1429.8
63	952483	177	1429.8
63	952484	178	1429.8
63	952829	179	1429.8
63	953466	180	1429.8
63	954740	181	1429.8
63	954741	182	1429.8
63	955086	183	1429.8
63	955087	184	1429.8
63	956122	185	1430.0150383631
63	956940	186	1430.8357891982
63	957285	187	1433.5599654268
63	957286	188	1439.0294736315
63	957631	189	1448.2754793631
63	958051	190	1459.2133617455
63	958330	191	1470.1694464424
63	958331	192	1480.9745775753
63	958413	193	1491.7651514401
63	958414	194	1500.3610481539
63	958616	195	1505.8217107022
63	958844	196	1508.712790817
63	958926	197	1512.4893766677
63	958927	198	1517.8364349844
63	958971	199	1523.3240669358
63	959089	200	1526.6
63	959251	201	1526.6
63	959252	202	1529.8
63	959296	203	1529.8
63	959297	204	1529.8
63	959398	205	1529.8
63	959517	206	1529.8
63	959559	207	1529.8
63	959560	208	1529.8
63	959603	209	1529.8
63	959662	210	1529.8
63	959763	211	1529.8
63	959764	212	1529.8
63	959806	213	1530.4481728167
63	959807	214	1533.7011005633
63	959907	215	1541.2719964888
63	959966	216	1551.3552995093
63	960008	217	1562.6862101966
63	960009	218	1574.2555777268
63	960051	219	1585.3769967581
63	960110	220	1596.3793923986
63	960210	221	1605.254608078
63	960211	222	1610.9480225268
63	960253	223	1613.655983403
63	960254	224	1613.8662641865
63	960270	225	1610.5866478201
63	960311	226	1606.2776730443
63	960327	227	1600.6394489233
63	960328	228	1594.0722153346
63	960344	229	1585.7396460912
63	960345	230	1575.7409440995
63	960416	231	1564.2013104913
63	960417	232	1552.590003565
63	960434	233	1541.5676613688
62	3	1	439.35620746735
62	11403	2	440.75269931826
62	17986	3	443.14662813747
62	17987	4	446.70301688727
62	42805	5	451.66770391744
62	59237	6	458.11732506945
62	65829	7	466.13529203477
62	65830	8	475.21867401961
62	72416	9	485.33292600344
62	88547	10	496.46240308278
62	111169	11	507.78330365415
62	111170	12	517.88489713926
62	117764	13	525.58188484268
62	117765	14	532.16528830106
62	141885	15	540.95409464664
62	158378	16	551.68130430711
62	169634	17	563.88709447376
62	169635	18	578.28773390095
62	176221	19	593.81212022741
62	193893	20	604.83650655388
62	215748	21	611.36089288035
62	215749	22	619.59502078672
62	222357	23	629.58401554829
62	222358	24	640.96963853405
62	246612	25	654.66525629439
62	262186	26	670.06553004584
62	268828	27	685.648546683
62	268829	28	696.92394213243
62	275089	29	703.69933758186
62	291426	30	712.32979095467
62	313509	31	722.12504429406
62	313510	32	728.99731659499
62	319789	33	735.54138882625
62	319790	34	742.3941166767
62	341956	35	749.35157882887
62	357174	36	756.24038785579
62	363090	37	763.46083711153
62	363091	38	770.32088254801
62	369007	39	777.56604143407
62	381249	40	784.89258025522
62	401496	41	792.18168477804
62	401497	42	802.25106320059
62	407060	43	808.46659436885
62	407061	44	812.85475022028
62	423319	45	815.83601602761
62	437808	46	819.59406595435
62	443007	47	822.98869991762
62	443008	48	823.4
62	448199	49	823.4
62	460080	50	823.4
62	480342	51	823.4
62	480343	52	823.4
62	485513	53	823.4
62	485514	54	823.4
62	502335	55	823.4
62	516999	56	823.4
62	522176	57	823.4
62	522177	58	823.4
62	527357	59	823.4
62	539017	60	823.4
62	557673	61	823.4
62	557674	62	823.4
62	562532	63	823.4
62	562533	64	823.4
62	577500	65	823.4
62	590662	66	823.4
62	594857	67	823.4
62	594858	68	823.4
62	599052	69	823.4
62	609294	70	823.4
62	624059	71	823.4
62	624060	72	823.4
62	627656	73	823.4
62	627660	74	823.4
62	640379	75	823.4
62	649695	76	823.4
62	653285	77	823.4
62	653286	78	823.4
62	656877	79	823.4
62	666184	80	823.4
62	678929	81	823.4
62	678930	82	823.4
62	682247	83	823.4
62	682248	84	823.4
62	694989	85	823.4
62	703625	86	823.4
62	707066	87	823.4
62	707067	88	823.4
62	710085	89	823.4
62	717402	90	823.4
62	728076	91	823.4
62	728216	92	823.4
62	731223	93	823.4
62	731224	94	823.4
62	741908	95	823.4
62	749389	96	823.4
62	752389	97	823.4
62	752390	98	823.4
62	755598	99	823.4
62	763012	100	823.4
62	773906	101	823.4
62	773907	102	823.4
62	776866	103	823.4
62	776867	104	823.4
62	787587	105	823.4
62	795625	106	823.4
62	798567	107	823.4
62	798568	108	823.4
62	801495	109	823.4
62	808346	110	823.4
62	818955	111	823.4
62	819083	112	823.4
62	821753	113	823.4
62	821754	114	823.4
62	830851	115	823.4
62	837650	116	823.4
62	840292	117	823.4
62	840293	118	823.4
62	842932	119	823.4
62	849465	120	823.4
62	858883	121	823.4
62	858884	122	823.4
62	861522	123	823.4
62	861526	124	823.4
62	869539	125	823.4
62	875480	126	823.52347858875
62	877671	127	824.35231980492
62	877672	128	826.65112104549
62	879658	129	832.26788340688
62	883689	130	837.21867292661
62	890067	131	843.46121130543
62	890068	132	851.86321655579
62	891663	133	861.61498888058
62	891664	134	873.28877833914
62	896528	135	886.56630178993
62	901110	136	901.25964440839
62	902513	137	914.61662123446
62	902514	138	922.93275249365
62	903914	139	928.51042352182
62	906466	140	932.49481329245
62	912071	141	936.06686495084
62	912072	142	941.08159197184
62	913308	143	947.34113828884
62	913309	144	955.01008819666
62	916566	145	966.73480720557
62	920382	146	977.85676913423
62	921620	147	989.27453965061
62	921621	148	1000.2322439866
62	922854	149	1011.9355659991
62	924871	150	1023.157742214
62	929579	151	1030.4433316261
62	929580	152	1037.4735923898
62	930650	153	1044.8627622758
62	930651	154	1051.9992001006
62	933061	155	1058.8936974677
62	935252	156	1065.9291097738
62	936033	157	1073.0366254473
62	936034	158	1080.3722847307
62	936816	159	1087.2206893214
62	937961	160	1094.2633183798
62	940859	161	1101.4323168932
62	940860	162	1108.4388743193
62	941649	163	1113.4330041221
62	941650	164	1117.8397585029
62	943664	165	1120.5601952782
62	945500	166	1126.9048865018
62	946171	167	1136.8224043175
62	946172	168	1144.035058868
62	946720	169	1152.9358481742
62	947433	170	1163.470581419
62	949159	171	1176.4400067004
62	949160	172	1189.7032459269
62	949601	173	1199.2070280832
62	949602	174	1208.2159663382
62	950810	175	1213.0184537791
62	952043	176	1219.4232026905
62	952483	177	1227.3869836656
62	952484	178	1237.0200029767
62	952829	179	1248.4697837959
62	953466	180	1261.3771566325
62	954740	181	1276.2163462837
62	954741	182	1288.6456497542
62	955086	183	1297.0900592396
62	955087	184	1301.9011759461
62	956122	185	1308.0959590763
62	956940	186	1316.4046316237
62	957285	187	1325.7002177698
62	957286	188	1336.7594736315
62	957631	189	1346.0054793631
62	958051	190	1356.9433617455
62	958330	191	1367.8994464424
62	958331	192	1378.7045775753
62	958413	193	1389.4951514401
62	958414	194	1398.0910481539
62	958616	195	1403.5517107022
62	958844	196	1406.442790817
62	958926	197	1410.4276367054
62	958927	198	1416.4167672856
62	958971	199	1424.7209623222
62	959089	200	1436.1378308285
62	959251	201	1450.3022318968
62	959252	202	1466.7913404191
62	959296	203	1483.2802776719
62	959297	204	1499.7053792023
62	959398	205	1515.2877582963
62	959517	206	1530.9953543113
62	959559	207	1547.4937301805
62	959560	208	1563.6381651031
62	959603	209	1579.8857128255
62	959662	210	1594.5496912051
62	959763	211	1605.6279348151
62	959764	212	1612.2061784251
62	959806	213	1620.6706917467
62	959807	214	1629.9318126925
62	959907	215	1639.0119964888
62	959966	216	1649.0952995093
62	960008	217	1660.4262101966
62	960009	218	1671.9955777268
62	960051	219	1683.1169967581
62	960110	220	1694.1193923986
62	960210	221	1702.994608078
62	960211	222	1708.6880225268
62	960253	223	1711.395983403
62	960254	224	1714.1134326023
62	960270	225	1712.8466478201
62	960311	226	1708.5376730443
62	960327	227	1702.8994489233
62	960328	228	1696.3322153346
62	960344	229	1687.9996460912
62	960345	230	1678.0009440995
62	960416	231	1666.4613104913
62	960417	232	1654.850003565
62	960434	233	1643.8276613688

