version 2
run General-0-20250527-05:19:19-11292
attr configname General
attr datetime 20250527-05:19:19
attr experiment General
attr inifile omnetpp.ini
attr iterationvars ""
attr iterationvarsf ""
attr measurement ""
attr network RSUExampleScenario
attr processid 11292
attr repetition 0
attr replication #0
attr resultdir results
attr runnumber 0
attr seedset 0
param *.playgroundSizeX 5000m
param *.playgroundSizeY 5000m
param *.playgroundSizeZ 50m
param *.annotations.draw true
param *.obstacles.obstacles "xmldoc(\"config.xml\", \"//AnalogueModel[@type='SimpleObstacleShadowing']/obstacles\")"
param *.manager.updateInterval 1s
param *.manager.host "\"localhost\""
param *.manager.port 9999
param *.manager.autoShutdown true
param *.manager.launchConfig "xmldoc(\"erlangen.launchd.xml\")"
param *.manager.trafficLightModuleType "\"org.car2x.veins.nodes.TrafficLight\""
param *.tls[*].mobility.x 0
param *.tls[*].mobility.y 0
param *.tls[*].mobility.z 3
param *.tls[*].applType "\"org.car2x.veins.modules.application.traci.TraCIDemoTrafficLightApp\""
param *.tls[*].logicType "\"org.car2x.veins.modules.world.traci.trafficLight.logics.TraCITrafficLightSimpleLogic\""
param *.rsu[0].mobility.x 1000
param *.rsu[0].mobility.y 1000
param *.rsu[0].mobility.z 3
param *.rsu[*].applType "\"RSUControlApp\""
param *.rsu[*].appl.headerLength "80 bit"
param *.rsu[*].appl.sendBeacons false
param *.rsu[*].appl.dataOnSch false
param *.rsu[*].appl.beaconInterval 1s
param *.rsu[*].appl.beaconUserPriority 7
param *.rsu[*].appl.dataUserPriority 5
param *.rsu[*].appl.netFile "\"./erlangen.net.xml\""
param *.rsu[*].appl.routeFile "\"./erlangen.rou.xml\""
param *.rsu[*].nic.phy80211p.antennaOffsetZ "0 m"
param *.connectionManager.sendDirect true
param *.connectionManager.maxInterfDist 4000m
param *.connectionManager.drawMaxIntfDist false
param *.**.nic.mac1609_4.useServiceChannel false
param *.**.nic.mac1609_4.txPower 50mW
param *.**.nic.mac1609_4.bitrate 6Mbps
param *.**.nic.phy80211p.minPowerLevel -110dBm
param *.**.nic.phy80211p.useNoiseFloor true
param *.**.nic.phy80211p.noiseFloor -98dBm
param *.**.nic.phy80211p.decider "xmldoc(\"config.xml\")"
param *.**.nic.phy80211p.analogueModels "xmldoc(\"config.xml\")"
param *.**.nic.phy80211p.usePropagationDelay true
param *.**.nic.phy80211p.antenna "xmldoc(\"antenna.xml\", \"/root/Antenna[@id='monopole']\")"
param *.node[*].nic.phy80211p.antennaOffsetY "0 m"
param *.node[*].nic.phy80211p.antennaOffsetZ "1.895 m"
param *.node[*].applType "\"VehicleControlApp\""
param *.node[*].appl.headerLength "80 bit"
param *.node[*].appl.sendBeacons true
param *.node[*].appl.dataOnSch false
param *.node[*].appl.beaconInterval 1s
param *.node[*].veinsmobility.x 0
param *.node[*].veinsmobility.y 0
param *.node[*].veinsmobility.z 0
param *.node[*].veinsmobility.setHostSpeed false
param *.node[*0].veinsmobility.accidentCount 1
param *.node[*0].veinsmobility.accidentStart 73s
param *.node[*0].veinsmobility.accidentDuration 50s

vector 0 RSUExampleScenario.node[0].veinsmobility posx ETV
vector 1 RSUExampleScenario.node[0].veinsmobility posy ETV
vector 2 RSUExampleScenario.node[1].veinsmobility posx ETV
vector 3 RSUExampleScenario.node[1].veinsmobility posy ETV
vector 4 RSUExampleScenario.node[2].veinsmobility posx ETV
vector 5 RSUExampleScenario.node[2].veinsmobility posy ETV
vector 6 RSUExampleScenario.node[3].veinsmobility posx ETV
vector 7 RSUExampleScenario.node[3].veinsmobility posy ETV
vector 8 RSUExampleScenario.node[4].veinsmobility posx ETV
vector 9 RSUExampleScenario.node[4].veinsmobility posy ETV
vector 10 RSUExampleScenario.node[5].veinsmobility posx ETV
vector 11 RSUExampleScenario.node[5].veinsmobility posy ETV
vector 12 RSUExampleScenario.node[6].veinsmobility posx ETV
vector 13 RSUExampleScenario.node[6].veinsmobility posy ETV
vector 14 RSUExampleScenario.node[7].veinsmobility posx ETV
vector 15 RSUExampleScenario.node[7].veinsmobility posy ETV
vector 16 RSUExampleScenario.node[8].veinsmobility posx ETV
vector 17 RSUExampleScenario.node[8].veinsmobility posy ETV
vector 18 RSUExampleScenario.node[9].veinsmobility posx ETV
vector 19 RSUExampleScenario.node[9].veinsmobility posy ETV
vector 20 RSUExampleScenario.node[10].veinsmobility posx ETV
vector 21 RSUExampleScenario.node[10].veinsmobility posy ETV
vector 22 RSUExampleScenario.node[11].veinsmobility posx ETV
vector 23 RSUExampleScenario.node[11].veinsmobility posy ETV
vector 24 RSUExampleScenario.node[12].veinsmobility posx ETV
vector 25 RSUExampleScenario.node[12].veinsmobility posy ETV
vector 26 RSUExampleScenario.node[13].veinsmobility posx ETV
vector 27 RSUExampleScenario.node[13].veinsmobility posy ETV
vector 28 RSUExampleScenario.node[14].veinsmobility posx ETV
vector 29 RSUExampleScenario.node[14].veinsmobility posy ETV
vector 30 RSUExampleScenario.node[15].veinsmobility posx ETV
vector 31 RSUExampleScenario.node[15].veinsmobility posy ETV
vector 32 RSUExampleScenario.node[16].veinsmobility posx ETV
vector 33 RSUExampleScenario.node[16].veinsmobility posy ETV
vector 34 RSUExampleScenario.node[17].veinsmobility posx ETV
vector 35 RSUExampleScenario.node[17].veinsmobility posy ETV
vector 36 RSUExampleScenario.node[18].veinsmobility posx ETV
vector 37 RSUExampleScenario.node[18].veinsmobility posy ETV
vector 38 RSUExampleScenario.node[19].veinsmobility posx ETV
vector 39 RSUExampleScenario.node[19].veinsmobility posy ETV
vector 40 RSUExampleScenario.node[20].veinsmobility posx ETV
vector 41 RSUExampleScenario.node[20].veinsmobility posy ETV
vector 42 RSUExampleScenario.node[21].veinsmobility posx ETV
vector 43 RSUExampleScenario.node[21].veinsmobility posy ETV
vector 44 RSUExampleScenario.node[22].veinsmobility posx ETV
vector 45 RSUExampleScenario.node[22].veinsmobility posy ETV
vector 46 RSUExampleScenario.node[23].veinsmobility posx ETV
vector 47 RSUExampleScenario.node[23].veinsmobility posy ETV
vector 48 RSUExampleScenario.node[24].veinsmobility posx ETV
vector 49 RSUExampleScenario.node[24].veinsmobility posy ETV
vector 50 RSUExampleScenario.node[25].veinsmobility posx ETV
vector 51 RSUExampleScenario.node[25].veinsmobility posy ETV
vector 52 RSUExampleScenario.node[26].veinsmobility posx ETV
vector 53 RSUExampleScenario.node[26].veinsmobility posy ETV
vector 54 RSUExampleScenario.node[27].veinsmobility posx ETV
vector 55 RSUExampleScenario.node[27].veinsmobility posy ETV
vector 56 RSUExampleScenario.node[28].veinsmobility posx ETV
vector 57 RSUExampleScenario.node[28].veinsmobility posy ETV
vector 58 RSUExampleScenario.node[29].veinsmobility posx ETV
vector 59 RSUExampleScenario.node[29].veinsmobility posy ETV
vector 60 RSUExampleScenario.node[30].veinsmobility posx ETV
vector 61 RSUExampleScenario.node[30].veinsmobility posy ETV
vector 62 RSUExampleScenario.node[31].veinsmobility posx ETV
vector 63 RSUExampleScenario.node[31].veinsmobility posy ETV
vector 64 RSUExampleScenario.node[32].veinsmobility posx ETV
vector 65 RSUExampleScenario.node[32].veinsmobility posy ETV
vector 66 RSUExampleScenario.node[0].veinsmobility speed ETV
vector 67 RSUExampleScenario.node[1].veinsmobility speed ETV
vector 68 RSUExampleScenario.node[2].veinsmobility speed ETV
vector 69 RSUExampleScenario.node[3].veinsmobility speed ETV
vector 70 RSUExampleScenario.node[4].veinsmobility speed ETV
vector 71 RSUExampleScenario.node[5].veinsmobility speed ETV
vector 72 RSUExampleScenario.node[6].veinsmobility speed ETV
vector 73 RSUExampleScenario.node[7].veinsmobility speed ETV
vector 74 RSUExampleScenario.node[8].veinsmobility speed ETV
vector 75 RSUExampleScenario.node[9].veinsmobility speed ETV
vector 76 RSUExampleScenario.node[10].veinsmobility speed ETV
vector 77 RSUExampleScenario.node[11].veinsmobility speed ETV
vector 78 RSUExampleScenario.node[12].veinsmobility speed ETV
vector 79 RSUExampleScenario.node[13].veinsmobility speed ETV
vector 80 RSUExampleScenario.node[14].veinsmobility speed ETV
vector 81 RSUExampleScenario.node[15].veinsmobility speed ETV
vector 82 RSUExampleScenario.node[16].veinsmobility speed ETV
vector 83 RSUExampleScenario.node[17].veinsmobility speed ETV
vector 84 RSUExampleScenario.node[18].veinsmobility speed ETV
vector 85 RSUExampleScenario.node[19].veinsmobility speed ETV
vector 86 RSUExampleScenario.node[20].veinsmobility speed ETV
vector 87 RSUExampleScenario.node[21].veinsmobility speed ETV
vector 88 RSUExampleScenario.node[22].veinsmobility speed ETV
vector 89 RSUExampleScenario.node[23].veinsmobility speed ETV
vector 90 RSUExampleScenario.node[24].veinsmobility speed ETV
vector 91 RSUExampleScenario.node[25].veinsmobility speed ETV
vector 92 RSUExampleScenario.node[26].veinsmobility speed ETV
vector 93 RSUExampleScenario.node[27].veinsmobility speed ETV
vector 94 RSUExampleScenario.node[28].veinsmobility speed ETV
vector 95 RSUExampleScenario.node[29].veinsmobility speed ETV
vector 96 RSUExampleScenario.node[30].veinsmobility speed ETV
vector 97 RSUExampleScenario.node[31].veinsmobility speed ETV
vector 98 RSUExampleScenario.node[32].veinsmobility speed ETV
vector 99 RSUExampleScenario.node[0].veinsmobility acceleration ETV
vector 100 RSUExampleScenario.node[0].veinsmobility co2emission ETV
vector 101 RSUExampleScenario.node[1].veinsmobility acceleration ETV
vector 102 RSUExampleScenario.node[1].veinsmobility co2emission ETV
vector 103 RSUExampleScenario.node[2].veinsmobility acceleration ETV
vector 104 RSUExampleScenario.node[2].veinsmobility co2emission ETV
vector 105 RSUExampleScenario.node[3].veinsmobility acceleration ETV
vector 106 RSUExampleScenario.node[3].veinsmobility co2emission ETV
vector 107 RSUExampleScenario.node[4].veinsmobility acceleration ETV
vector 108 RSUExampleScenario.node[4].veinsmobility co2emission ETV
vector 109 RSUExampleScenario.node[5].veinsmobility acceleration ETV
vector 110 RSUExampleScenario.node[5].veinsmobility co2emission ETV
vector 111 RSUExampleScenario.node[6].veinsmobility acceleration ETV
vector 112 RSUExampleScenario.node[6].veinsmobility co2emission ETV
vector 113 RSUExampleScenario.node[7].veinsmobility acceleration ETV
vector 114 RSUExampleScenario.node[7].veinsmobility co2emission ETV
vector 115 RSUExampleScenario.node[8].veinsmobility acceleration ETV
vector 116 RSUExampleScenario.node[8].veinsmobility co2emission ETV
vector 117 RSUExampleScenario.node[9].veinsmobility acceleration ETV
vector 118 RSUExampleScenario.node[9].veinsmobility co2emission ETV
vector 119 RSUExampleScenario.node[10].veinsmobility acceleration ETV
vector 120 RSUExampleScenario.node[10].veinsmobility co2emission ETV
vector 121 RSUExampleScenario.node[11].veinsmobility acceleration ETV
vector 122 RSUExampleScenario.node[11].veinsmobility co2emission ETV
vector 123 RSUExampleScenario.node[12].veinsmobility acceleration ETV
vector 124 RSUExampleScenario.node[12].veinsmobility co2emission ETV
vector 125 RSUExampleScenario.node[13].veinsmobility acceleration ETV
vector 126 RSUExampleScenario.node[13].veinsmobility co2emission ETV
vector 127 RSUExampleScenario.node[14].veinsmobility acceleration ETV
vector 128 RSUExampleScenario.node[14].veinsmobility co2emission ETV
vector 129 RSUExampleScenario.node[15].veinsmobility acceleration ETV
vector 130 RSUExampleScenario.node[15].veinsmobility co2emission ETV
vector 131 RSUExampleScenario.node[16].veinsmobility acceleration ETV
vector 132 RSUExampleScenario.node[16].veinsmobility co2emission ETV
vector 133 RSUExampleScenario.node[17].veinsmobility acceleration ETV
vector 134 RSUExampleScenario.node[17].veinsmobility co2emission ETV
vector 135 RSUExampleScenario.node[18].veinsmobility acceleration ETV
vector 136 RSUExampleScenario.node[18].veinsmobility co2emission ETV
vector 137 RSUExampleScenario.node[19].veinsmobility acceleration ETV
vector 138 RSUExampleScenario.node[19].veinsmobility co2emission ETV
vector 139 RSUExampleScenario.node[20].veinsmobility acceleration ETV
vector 140 RSUExampleScenario.node[20].veinsmobility co2emission ETV
vector 141 RSUExampleScenario.node[21].veinsmobility acceleration ETV
vector 142 RSUExampleScenario.node[21].veinsmobility co2emission ETV
vector 143 RSUExampleScenario.node[22].veinsmobility acceleration ETV
vector 144 RSUExampleScenario.node[22].veinsmobility co2emission ETV
vector 145 RSUExampleScenario.node[23].veinsmobility acceleration ETV
vector 146 RSUExampleScenario.node[23].veinsmobility co2emission ETV
vector 147 RSUExampleScenario.node[24].veinsmobility acceleration ETV
vector 148 RSUExampleScenario.node[24].veinsmobility co2emission ETV
vector 149 RSUExampleScenario.node[25].veinsmobility acceleration ETV
vector 150 RSUExampleScenario.node[25].veinsmobility co2emission ETV
vector 151 RSUExampleScenario.node[26].veinsmobility acceleration ETV
vector 152 RSUExampleScenario.node[26].veinsmobility co2emission ETV
vector 153 RSUExampleScenario.node[27].veinsmobility acceleration ETV
vector 154 RSUExampleScenario.node[27].veinsmobility co2emission ETV
vector 155 RSUExampleScenario.node[28].veinsmobility acceleration ETV
vector 156 RSUExampleScenario.node[28].veinsmobility co2emission ETV
vector 157 RSUExampleScenario.node[29].veinsmobility acceleration ETV
vector 158 RSUExampleScenario.node[29].veinsmobility co2emission ETV
vector 159 RSUExampleScenario.node[30].veinsmobility acceleration ETV
vector 160 RSUExampleScenario.node[30].veinsmobility co2emission ETV
vector 161 RSUExampleScenario.node[31].veinsmobility acceleration ETV
vector 162 RSUExampleScenario.node[31].veinsmobility co2emission ETV
vector 163 RSUExampleScenario.node[32].veinsmobility acceleration ETV
vector 164 RSUExampleScenario.node[32].veinsmobility co2emission ETV
132	23353	3	4.436257122171
132	23684	4	5.2342729104431
132	48176	5	6.3343920697346
132	65146	6	7.6076847137346
132	72062	7	8.7013876364486
132	72393	8	4.2522941722516
132	79310	9	2.4842005908691
132	97778	10	1.8739229801251
132	120995	11	2.1805624405411
132	122611	12	2.265094200897
132	130399	13	1.7319596614862
132	131600	14	2.4198951712829
132	156939	15	1.8057928073993
132	172802	16	0.973
132	180111	17	0.973
132	181453	18	4.3736873352386
132	190367	19	6.7472697184488
132	209882	20	7.196604007709
132	234382	21	8.5019890716318
132	235581	22	4.9886289915387
132	243452	23	2.3360300914129
132	244374	24	2.2623527346331
132	269352	25	1.8962748196322
131	23353	3	2.0393692707852
131	23684	4	1.9063119896222
131	48176	5	1.9368073335267
131	65146	6	1.9983148101089
131	72062	7	1.9835295623774
131	72393	8	0.61390468504386
131	79310	9	0.10608772170963
131	97778	10	-0.064858215290588
131	120995	11	0.021577691517304
131	122611	12	0.044080771668815
131	130399	13	-0.1042939586984
131	131600	14	0.08844681527
131	156939	15	-0.083385252971203
131	172802	16	-3.8929774072273
131	180111	17	-4.4430852957784
131	181453	18	1.5226609006873
131	190367	19	2.1286349259992
131	209882	20	1.8912437263457
131	234382	21	1.9603353324928
131	235581	22	0.82385978710944
131	243452	23	0.065645247003994
131	244374	24	0.043292683179025
131	269352	25	-0.058701594420709
82	16435	2	4.0841693135099
82	23353	3	6.1235385842951
82	23684	4	8.0298505739173
82	48176	5	9.966657907444
82	65146	6	11.964972717553
82	72062	7	13.94850227993
82	72393	8	14.562406964974
82	79310	9	14.668494686684
82	97778	10	14.603636471393
82	120995	11	14.62521416291
82	122611	12	14.669294934579
82	130399	13	14.565000975881
82	131600	14	14.653447791151
82	156939	15	14.57006253818
82	172802	16	10.677085130952
82	180111	17	6.233999835174
82	181453	18	7.7566607358613
82	190367	19	9.8852956618605
82	209882	20	11.776539388206
82	234382	21	13.736874720699
82	235581	22	14.560734507809
82	243452	23	14.626379754813
82	244374	24	14.669672437992
82	269352	25	14.610970843571
33	3	1	646.60413867043
33	16435	2	649.44373318755
33	23353	3	654.07937455855
33	23684	4	660.4673282942
33	48176	5	668.5908278216
33	65146	6	678.47551052941
33	72062	7	690.13223131101
33	72393	8	703.12329025839
33	79310	9	716.19765619981
33	97778	10	729.26072130624
33	120995	11	742.32659189138
33	122611	12	755.43110708459
33	130399	13	768.49399670566
33	131600	14	781.56350649144
33	156939	15	794.63801677844
33	172802	16	805.98770190666
33	180111	17	813.33884422282
33	181453	18	819.40775996516
33	190367	19	827.30167744513
33	209882	20	837.9866643737
33	234382	21	850.8577217539
33	235581	22	865.33712598825
33	243452	23	879.95394559167
33	244374	24	894.57615372717
33	269352	25	909.17686906207
32	3	1	1230.4372253222
32	16435	2	1231.8571029087
32	23353	3	1234.1750547298
32	23684	4	1237.3692123035
32	48176	5	1241.4311918692
32	65146	6	1246.3738128463
32	72062	7	1252.2025029888
32	72393	8	1258.6983999606
32	79310	9	1265.2359527861
32	97778	10	1271.7678548744
32	120995	11	1278.3011597814
32	122611	12	1284.8537880856
32	130399	13	1291.3856024263
32	131600	14	1297.9207270366
32	156939	15	1304.4583520389
32	172802	16	1310.1335156691
32	180111	17	1313.8092947803
32	181453	18	1316.8614732989
32	190367	19	1319.9271104519
32	209882	20	1320.2
32	234382	21	1320.2
32	235581	22	1320.2
32	243452	23	1320.2
32	244374	24	1320.2
32	269352	25	1320.2
142	23353	3	3.999678650274
142	23684	4	5.0133073503687
142	48176	5	6.0734961705329
142	65146	6	7.4760073126994
142	72062	7	0.973
142	72393	8	0.973
142	79310	9	2.1609584890097
142	97778	10	2.3510873656969
142	120995	11	1.3533497483418
142	122611	12	1.6349307945363
142	130399	13	3.4117860435455
142	131600	14	6.5120948176046
142	156939	15	7.4841721441
142	172802	16	1.8950515094086
142	180111	17	1.6562334986085
142	181453	18	1.7128437855538
142	190367	19	1.9456518628176
142	209882	20	0.973
142	234382	21	0.973
142	235581	22	0.973
142	243452	23	1.1838900370016
142	244374	24	3.6872540907304
142	269352	25	4.7350330188528
142	287574	26	5.9997088714156
142	294721	27	7.1949189288723
142	295620	28	5.4622091821082
142	303082	29	1.8539019723644
142	320526	30	2.0052633029395
142	343116	31	1.8729072797038
142	343741	32	1.7199259066946
141	23353	3	1.8322045051889
141	23684	4	1.8713378136884
141	48176	5	1.9018387621944
141	65146	6	2.0151761048194
141	72062	7	-0.42610184083004
141	72393	8	-4.4736798372507
141	79310	9	0.39094119879883
141	97778	10	0.45559371772149
141	120995	11	-0.087319000959396
141	122611	12	0.065386987884994
141	130399	13	0.89936607278884
141	131600	14	1.9158315784042
141	156939	15	1.8949214708616
141	172802	16	0.0069276290759444
141	180111	17	-0.071928800083697
141	181453	18	-0.051362253814005
141	190367	19	0.027135413384531
141	209882	20	-1.7071288978305
141	234382	21	-4.4878038282054
141	235581	22	-2.7694970302376
141	243452	23	-0.10581590780057
141	244374	24	1.9126826939732
141	269352	25	1.9374755578954
141	287574	26	2.0233851955133
141	294721	27	2.0402700125938
141	295620	28	1.215841323534
141	303082	29	-0.0056939056981342
141	320526	30	0.044076115454081
141	343116	31	-0.00057965700980311
141	343741	32	-0.050882798570674
87	16435	2	4.0295052343999
87	23353	3	5.8617097395887
87	23684	4	7.7330475532772
87	48176	5	9.6348863154715
87	65146	6	11.650062420291
87	72062	7	11.223960579461
87	72393	8	6.7502807422102
87	79310	9	7.141221941009
87	97778	10	7.5968156587305
87	120995	11	7.5094966577711
87	122611	12	7.5748836456561
87	130399	13	8.4742497184449
87	131600	14	10.390081296849
87	156939	15	12.285002767711
87	172802	16	12.291930396787
87	180111	17	12.220001596703
87	181453	18	12.168639342889
87	190367	19	12.195774756273
87	209882	20	10.488645858443
87	234382	21	6.0008420302376
87	235581	22	3.231345
87	243452	23	3.1255290921994
87	244374	24	5.0382117861726
87	269352	25	6.975687344068
87	287574	26	8.9990725395812
87	294721	27	11.039342552175
87	295620	28	12.255183875709
87	303082	29	12.249489970011
87	320526	30	12.293566085465
87	343116	31	12.292986428455
87	343741	32	12.242103629885
43	3	1	1420.2
43	16435	2	1423.4
43	23353	3	1423.4
43	23684	4	1423.4
43	48176	5	1423.4
43	65146	6	1423.4
43	72062	7	1423.4
43	72393	8	1423.4
43	79310	9	1423.5264762028
43	97778	10	1425.8060520043
43	120995	11	1432.0592411301
43	122611	12	1439.048261872
43	130399	13	1445.0885603683
43	131600	14	1451.7948522918
43	156939	15	1459.8942600738
43	172802	16	1468.5532742311
43	180111	17	1477.1920992758
43	181453	18	1485.8439579626
43	190367	19	1494.4797199209
43	209882	20	1502.8227477536
43	234382	21	1508.496120224
43	235581	22	1510.6313268333
43	243452	23	1508.3362723941
43	244374	24	1505.339072353
43	269352	25	1501.0443675467
43	287574	26	1495.313184023
43	294721	27	1488.1504969133
43	295620	28	1479.7369217301
43	303082	29	1471.0848861058
43	320526	30	1462.4339373527
43	343116	31	1453.7791073226
43	343741	32	1445.1168191683
42	3	1	1208.4378591207
42	16435	2	1205.3220964241
42	23353	3	1200.2685415302
42	23684	4	1193.3846866893
42	48176	5	1184.6292610318
42	65146	6	1173.7755699583
42	72062	7	1161.7884820413
42	72393	8	1153.0228111833
42	79310	9	1146.7833322147
42	97778	10	1139.7428970316
42	120995	11	1136.1821912288
42	122611	12	1137.9360070353
42	130399	13	1142.8185603683
42	131600	14	1149.5248522918
42	156939	15	1157.6242600738
42	172802	16	1166.2832742311
42	180111	17	1174.9220992758
42	181453	18	1183.5739579626
42	190367	19	1192.2097199209
42	209882	20	1200.5527477536
42	234382	21	1206.226120224
42	235581	22	1209.3845860833
42	243452	23	1210.4246170918
42	244374	24	1207.609072353
42	269352	25	1203.3143675467
42	287574	26	1197.583184023
42	294721	27	1190.4204969133
42	295620	28	1182.0069217301
42	303082	29	1173.3548861058
42	320526	30	1164.7039373527
42	343116	31	1156.0491073226
42	343741	32	1147.3868191683
140	23353	3	3.9664101215969
140	23684	4	5.1658465187789
140	48176	5	6.0075806673474
140	65146	6	6.2387179608012
140	72062	7	8.3376211747402
140	72393	8	0.973
140	79310	9	0.973
140	97778	10	0.973
140	120995	11	1.3271398413487
140	122611	12	4.5077057833933
140	130399	13	5.8602892639163
140	131600	14	6.9060333624895
140	156939	15	7.8213528258764
140	172802	16	10.064190636482
140	180111	17	0.973
140	181453	18	0.973
140	190367	19	0.973
140	209882	20	6.3267371267745
140	234382	21	5.5128052585263
140	235581	22	8.0701833538557
140	243452	23	9.2607767732769
140	244374	24	7.5895673478338
140	269352	25	0.973
140	287574	26	0.973
140	294721	27	0.973
140	295620	28	0.973
140	303082	29	3.29569975117
140	320526	30	5.3902581415412
140	343116	31	6.4338782535367
140	343741	32	7.5963670227143
140	351195	33	9.0810600395223
140	352195	34	10.427980136472
140	373502	35	3.6090138066171
139	23353	3	1.8634128931724
139	23684	4	1.969085919261
139	48176	5	1.8889145730087
139	65146	6	1.6489903739258
139	72062	7	2.0017865399667
139	72393	8	-1.8551691748706
139	79310	9	-4.4544009366414
139	97778	10	-2.6025851720597
139	120995	11	0.0018894245498808
139	122611	12	2.0145390275377
139	130399	13	2.1101360307634
139	131600	14	2.0516919290461
139	156939	15	1.9754373939685
139	172802	16	2.2439140312094
139	180111	17	-1.4544503585015
139	181453	18	-4.493708100015
139	190367	19	-0.94460413852045
139	209882	20	1.9751653026231
139	234382	21	1.3871134571012
139	235581	22	1.9369380059815
139	243452	23	1.9574724714877
139	244374	24	1.3358037506477
139	269352	25	-2.9332820965299
139	287574	26	-4.4757513247045
139	294721	27	-3.9080834418174
139	295620	28	-0.80225295959831
139	303082	29	1.3868915901217
139	320526	30	2.071034263107
139	343116	31	2.0251274308539
139	343741	32	2.0283517100476
139	351195	33	2.1052234284114
139	352195	34	2.1156093958206
139	373502	35	0.33170250987203
86	16435	2	3.845600615549
86	23353	3	5.7090135087214
86	23684	4	7.6780994279823
86	48176	5	9.567014000991
86	65146	6	11.216004374917
86	72062	7	13.217790914883
86	72393	8	11.362621740013
86	79310	9	6.9082208033715
86	97778	10	4.3056356313117
86	120995	11	4.3075250558616
86	122611	12	6.3220640833993
86	130399	13	8.4322001141627
86	131600	14	10.483892043209
86	156939	15	12.459329437177
86	172802	16	14.703243468387
86	180111	17	13.248793109885
86	181453	18	8.7550850098701
86	190367	19	7.8104808713497
86	209882	20	9.7856461739727
86	234382	21	11.172759631074
86	235581	22	13.109697637055
86	243452	23	15.067170108543
86	244374	24	16.402973859191
86	269352	25	13.469691762661
86	287574	26	8.9939404379565
86	294721	27	5.0858569961391
86	295620	28	4.2836040365408
86	303082	29	5.6704956266624
86	320526	30	7.7415298897694
86	343116	31	9.7666573206233
86	343741	32	11.795009030671
86	351195	33	13.900232459082
86	352195	34	16.015841854903
86	373502	35	16.347544364775
41	3	1	1308.490577159
41	16435	2	1305.5030726355
41	23353	3	1300.5924562116
41	23684	4	1293.8450622641
41	48176	5	1285.1389351664
41	65146	6	1274.6756369729
41	72062	7	1262.3532914033
41	72393	8	1249.3919513524
41	79310	9	1240.4822329695
41	97778	10	1234.8756167389
41	120995	11	1235.6254144815
41	122611	12	1241.0506065539
41	130399	13	1248.557618919
41	131600	14	1258.1892770956
41	156939	15	1269.7342456693
41	172802	16	1283.4641911046
41	180111	17	1298.1355169555
41	181453	18	1308.9105684454
41	190367	19	1316.2471693324
41	209882	20	1324.085528173
41	234382	21	1326.6
41	235581	22	1326.6
41	243452	23	1326.6
41	244374	24	1326.6
41	269352	25	1326.6
41	287574	26	1326.6
41	294721	27	1326.6
41	295620	28	1323.8523304024
41	303082	29	1323.4
41	320526	30	1323.4
41	343116	31	1323.4
41	343741	32	1323.4
41	351195	33	1323.4
41	352195	34	1323.4
41	373502	35	1323.4
40	3	1	629.8
40	16435	2	626.6
40	23353	3	626.6
40	23684	4	626.6
40	48176	5	626.6
40	65146	6	626.6
40	72062	7	626.6
40	72393	8	626.6
40	79310	9	626.6
40	97778	10	626.25041115926
40	120995	11	623.4
40	122611	12	623.4
40	130399	13	623.4
40	131600	14	623.4
40	156939	15	623.4
40	172802	16	623.4
40	180111	17	623.4
40	181453	18	623.4
40	190367	19	623.63814496372
40	209882	20	627.20921362166
40	234382	21	637.33294758028
40	235581	22	649.59735567709
40	243452	23	663.78775439515
40	244374	24	679.78230273619
40	269352	25	695.0502080757
40	287574	26	706.05070723916
40	294721	27	712.80641430039
40	295620	28	713.94849560367
40	303082	29	709.22037032291
40	320526	30	702.41895327824
40	343116	31	693.53594039993
40	343741	32	682.63916508418
40	351195	33	669.66596115205
40	352195	34	654.53318988938
40	373502	35	638.18393293797
126	23353	3	4.1012438210639
126	23684	4	5.2144348140525
126	48176	5	6.4727369067899
126	65146	6	6.9406078398917
126	72062	7	8.8365953822842
126	72393	8	2.1426749921207
126	79310	9	2.0578614448912
126	97778	10	1.6414972367352
126	120995	11	2.3140855168761
126	122611	12	1.8678761429362
126	130399	13	2.0634422592584
126	131600	14	1.8503700698138
126	156939	15	1.891260932679
126	172802	16	2.0996117501076
126	180111	17	2.014160613928
126	181453	18	2.0380241315546
126	190367	19	1.9858985989989
126	209882	20	1.902625894925
126	234382	21	2.0443439064163
126	235581	22	2.2479930970909
126	243452	23	2.006946915641
126	244374	24	1.7158343059077
126	269352	25	2.0435928554686
126	287574	26	2.2980577738229
126	294721	27	1.9358973500796
126	295620	28	1.9921987618645
126	303082	29	1.7196854090949
126	320526	30	2.3821140624277
126	343116	31	0.973
126	343741	32	0.973
126	351195	33	2.0504871146685
126	352195	34	1.3347759606224
126	373502	35	5.5631414120464
126	390032	36	6.5442706765118
126	396948	37	7.4320902014498
126	397834	38	7.0731404334611
126	404614	39	1.9890638449262
126	418584	40	1.7084349230518
125	23353	3	1.9745118190045
125	23684	4	1.9970645728521
125	48176	5	2.0519077559933
125	65146	6	1.8405647903029
125	72062	7	2.0784219045145
125	72393	8	0.041182545620281
125	79310	9	0.014993374503684
125	97778	10	-0.10869421598036
125	120995	11	0.093177245797124
125	122611	12	-0.041007582894526
125	130399	13	0.017905175145716
125	131600	14	-0.045584946593737
125	156939	15	-0.032222195633221
125	172802	16	0.030432812822982
125	180111	17	0.0042565413238496
125	181453	18	0.011179215651936
125	190367	19	-0.0045540568674909
125	209882	20	-0.029095294808503
125	234382	21	0.013727733022533
125	235581	22	0.073198866683525
125	243452	23	9.3588514719301e-005
125	244374	24	-0.086127512103413
125	269352	25	0.013478562228848
125	287574	26	0.08782031150302
125	294721	27	-0.021277701747604
125	295620	28	-0.0040731411031452
125	303082	29	-0.084740175893531
125	320526	30	0.11316502929432
125	343116	31	-3.95963778406
125	343741	32	-3.7530040904587
125	351195	33	0.39556440728221
125	352195	34	-0.067774747908116
125	373502	35	1.9963917415147
125	390032	36	1.9555624646787
125	396948	37	1.8992022673273
125	397834	38	1.5338879321212
125	404614	39	-0.0057110933726658
125	418584	40	-0.08862958609825
79	16435	2	3.7006899836532
79	23353	3	5.6752018026578
79	23684	4	7.6722663755099
79	48176	5	9.7241741315032
79	65146	6	11.564738921806
79	72062	7	13.643160826321
79	72393	8	13.684343371941
79	79310	9	13.699336746445
79	97778	10	13.590642530464
79	120995	11	13.683819776261
79	122611	12	13.642812193367
79	130399	13	13.660717368513
79	131600	14	13.615132421919
79	156939	15	13.582910226286
79	172802	16	13.613343039109
79	180111	17	13.617599580432
79	181453	18	13.628778796084
79	190367	19	13.624224739217
79	209882	20	13.595129444408
79	234382	21	13.608857177431
79	235581	22	13.682056044114
79	243452	23	13.682149632629
79	244374	24	13.596022120526
79	269352	25	13.609500682755
79	287574	26	13.697320994258
79	294721	27	13.67604329251
79	295620	28	13.671970151407
79	303082	29	13.587229975513
79	320526	30	13.700395004808
79	343116	31	9.7407572207476
79	343741	32	5.9877531302889
79	351195	33	6.3833175375711
79	352195	34	6.315542789663
79	373502	35	8.3119345311776
79	390032	36	10.267496995856
79	396948	37	12.166699263184
79	397834	38	13.700587195305
79	404614	39	13.694876101932
79	418584	40	13.606246515834
27	3	1	231.17221028621
27	16435	2	234.16893384043
27	23353	3	238.99546426702
27	23684	4	245.78730746662
27	48176	5	254.65947647051
27	65146	6	265.39239334324
27	72062	7	278.03503073992
27	72393	8	291.69272307451
27	79310	9	305.33292812115
27	97778	10	318.98143424387
27	120995	11	332.61745422165
27	122611	12	346.25164011819
27	130399	13	359.87517095043
27	131600	14	373.50911091052
27	156939	15	387.15903716179
27	172802	16	400.81322032794
27	180111	17	414.46310680546
27	181453	18	428.09920226184
27	190367	19	441.73226138489
27	209882	20	455.34453395035
27	234382	21	468.9675835722
27	235581	22	482.61512650949
27	243452	23	496.25841837591
27	244374	24	509.8803160023
27	269352	25	523.52027512744
27	287574	26	537.17234470488
27	294721	27	550.81556887572
27	295620	28	564.44700399331
27	303082	29	578.08473196647
27	320526	30	591.73664603633
27	343116	31	603.46830457529
27	343741	32	610.81389696625
27	351195	33	617.28336296915
27	352195	34	620.2
27	373502	35	620.2
27	390032	36	620.2
27	396948	37	620.2
27	397834	38	620.2
27	404614	39	620.2
27	418584	40	620.2
26	3	1	1220.2
26	16435	2	1220.2
26	23353	3	1220.2
26	23684	4	1220.2
26	48176	5	1220.2
26	65146	6	1220.2
26	72062	7	1220.2
26	72393	8	1220.2
26	79310	9	1220.2
26	97778	10	1220.2
26	120995	11	1220.2
26	122611	12	1220.2
26	130399	13	1220.2
26	131600	14	1220.2
26	156939	15	1220.2
26	172802	16	1220.2
26	180111	17	1220.2
26	181453	18	1220.2
26	190367	19	1220.2
26	209882	20	1220.2
26	234382	21	1220.2
26	235581	22	1220.2
26	243452	23	1220.2
26	244374	24	1220.2
26	269352	25	1220.2
26	287574	26	1220.2
26	294721	27	1220.2
26	295620	28	1220.2
26	303082	29	1220.2
26	320526	30	1220.2
26	343116	31	1220.2
26	343741	32	1220.2
26	351195	33	1219.7099822185
26	352195	34	1214.539926001
26	373502	35	1207.1021478608
26	390032	36	1197.6610445052
26	396948	37	1186.3367398391
26	397834	38	1173.2472150032
26	404614	39	1159.5966079356
26	418584	40	1145.9669166929
110	23353	3	4.1950582781709
110	23684	4	5.2991645885064
110	48176	5	5.7481744199244
110	65146	6	7.0606026109613
110	72062	7	8.0150102713398
110	72393	8	8.7917582120188
110	79310	9	0.973
110	97778	10	0.973
110	120995	11	1.5372429659407
110	122611	12	1.5446862435449
110	130399	13	1.9824111141588
110	131600	14	6.1851715230647
110	156939	15	7.0941277388273
110	172802	16	8.0617343658823
110	180111	17	3.3474764675371
110	181453	18	0.973
110	190367	19	0.973
110	209882	20	6.4970164818763
110	234382	21	5.612161826059
110	235581	22	5.7901177078771
110	243452	23	9.2393829543957
110	244374	24	9.111897136232
110	269352	25	2.7723401330968
110	287574	26	1.902789892877
110	294721	27	2.5135456498193
110	295620	28	2.2249041790055
110	303082	29	2.1055316085282
110	320526	30	2.421354992603
110	343116	31	2.3880001416673
110	343741	32	1.9548969503592
110	351195	33	2.2081653447199
110	352195	34	2.3662256780734
110	373502	35	2.3531794017341
110	390032	36	2.3487721727839
110	396948	37	1.9363805222925
110	397834	38	0.973
110	404614	39	0.973
110	418584	40	0.973
110	440741	41	6.2183709707364
110	441684	42	7.6808174522621
110	447900	43	8.2156671595651
110	449454	44	9.1502161880857
110	467142	45	6.2989371647204
110	482930	46	0.973
110	488859	47	0.973
110	489551	48	0.973
110	495670	49	0.973
110	508238	50	2.250980612195
110	528500	51	4.8844357662708
110	529439	52	6.4322596377487
110	535884	53	6.8502047965283
110	537066	54	8.2959826663484
110	554839	55	9.6979408315253
110	568952	56	0.973
110	575278	57	0.973
109	23353	3	1.9380893905158
109	23684	4	1.9706534823356
109	48176	5	1.753550092543
109	65146	6	1.8849107773695
109	72062	7	1.8652278567269
109	72393	8	1.8041774717066
109	79310	9	-3.6513509058234
109	97778	10	-4.499238178948
109	120995	11	0.029924118596749
109	122611	12	0.032919970422517
109	130399	13	0.26750921760686
109	131600	14	2.003604565158
109	156939	15	1.9383243325423
109	172802	16	1.9082543422817
109	180111	17	0.40766190323101
109	181453	18	-4.4223686427223
109	190367	19	-2.37
109	209882	20	2.2250580479531
109	234382	21	1.5166314826455
109	235581	22	1.365792548235
109	243452	23	2.1165477735968
109	244374	24	1.7926799868746
109	269352	25	0.13197208313476
109	287574	26	-0.090946530723011
109	294721	27	0.065826083193533
109	295620	28	-0.0087800555257136
109	303082	29	-0.038662256496027
109	320526	30	0.042091571434867
109	343116	31	0.032369400097522
109	343741	32	-0.077766618330497
109	351195	33	-0.011513402371202
109	352195	34	0.028707789643668
109	373502	35	0.024520575108472
109	390032	36	0.022644230686128
109	396948	37	-0.082128012913746
109	397834	38	-2.6022890858059
109	404614	39	-4.5
109	418584	40	-2.37
109	440741	41	2.2155457137409
109	441684	42	2.2505355713959
109	447900	43	2.0148454614822
109	449454	44	1.9551551017491
109	467142	45	1.0527659853697
109	482930	46	-1.0373353611224
109	488859	47	-4.4888940421883
109	489551	48	-3.9494130054015
109	495670	49	-2.3275519464095
109	508238	50	0.75717045176774
109	528500	51	2.0389830888761
109	529439	52	2.1880115053849
109	535884	53	1.9112705115927
109	537066	54	2.0184783414146
109	554839	55	2.0684123745095
109	568952	56	-4.5
109	575278	57	-4.5
71	16435	2	4.0108591709939
71	23353	3	5.9489485615097
71	23684	4	7.9196020438453
71	48176	5	9.6731521363883
71	65146	6	11.558062913758
71	72062	7	13.423290770485
71	72393	8	15.227468242191
71	79310	9	11.576117336368
71	97778	10	7.0768791574199
71	120995	11	7.1068032760166
71	122611	12	7.1397232464392
71	130399	13	7.407232464046
71	131600	14	9.410837029204
71	156939	15	11.349161361746
71	172802	16	13.257415704028
71	180111	17	13.665077607259
71	181453	18	9.2427089645367
71	190367	19	6.8727089645367
71	209882	20	9.0977670124898
71	234382	21	10.614398495135
71	235581	22	11.98019104337
71	243452	23	14.096738816967
71	244374	24	15.889418803842
71	269352	25	16.021390886976
71	287574	26	15.930444356253
71	294721	27	15.996270439447
71	295620	28	15.987490383921
71	303082	29	15.948828127425
71	320526	30	15.99091969886
71	343116	31	16.023289098958
71	343741	32	15.945522480627
71	351195	33	15.934009078256
71	352195	34	15.9627168679
71	373502	35	15.987237443008
71	390032	36	16.009881673694
71	396948	37	15.92775366078
71	397834	38	13.325464574975
71	404614	39	8.8254645749745
71	418584	40	6.4554645749745
71	440741	41	8.6710102887154
71	441684	42	10.921545860111
71	447900	43	12.936391321593
71	449454	44	14.891546423343
71	467142	45	15.944312408712
71	482930	46	14.90697704759
71	488859	47	10.418083005402
71	489551	48	6.46867
71	495670	49	4.1411180535905
71	508238	50	4.8982885053582
71	528500	51	6.9372715942343
71	529439	52	9.1252830996193
71	535884	53	11.036553611212
71	537066	54	13.055031952627
71	554839	55	15.123444327136
71	568952	56	10.623444327136
71	575278	57	6.1234443271361
11	3	1	1248.5116460867
11	16435	2	1250.7195369894
11	23353	3	1254.2527083078
11	23684	4	1259.2312105858
11	48176	5	1265.5067796619
11	65146	6	1273.0787454802
11	72062	7	1281.9938873878
11	72393	8	1292.2060161235
11	79310	9	1301.8065431146
11	97778	10	1308.2420246765
11	120995	11	1312.8950939594
11	122611	12	1318.8278136626
11	130399	13	1323.4
11	131600	14	1323.4
11	156939	15	1323.4
11	172802	16	1323.4
11	180111	17	1323.4
11	181453	18	1323.4
11	190367	19	1323.4
11	209882	20	1324.6047557441
11	234382	21	1332.3981379327
11	235581	22	1343.5274077641
11	243452	23	1356.6051354953
11	244374	24	1371.6323238274
11	269352	25	1387.6316700732
11	287574	26	1403.6023529401
11	294721	27	1419.6002304645
11	295620	28	1435.5610441998
11	303082	29	1451.545631844
11	320526	30	1467.5201087337
11	343116	31	1483.5149267492
11	343741	32	1499.494274096
11	351195	33	1515.4910184362
11	352195	34	1531.4922320084
11	373502	35	1547.4752117722
11	390032	36	1563.4623331206
11	396948	37	1579.4592855615
11	397834	38	1594.5189874642
11	404614	39	1605.3694520392
11	418584	40	1612.1459166141
11	440741	41	1619.8996340983
11	441684	42	1629.8019914151
11	447900	43	1641.8501801157
11	449454	44	1655.859229481
11	467142	45	1671.6018998163
11	482930	46	1687.3972995417
11	488859	47	1699.8403825471
11	489551	48	1707.838524252
11	495670	49	1711.6334605709
11	508238	50	1707.9876246622
11	528500	51	1702.0014967713
11	529439	52	1693.7761130405
11	535884	53	1683.55399743
11	537066	54	1671.4636917546
11	554839	55	1657.2735127732
11	568952	56	1644.625068446
11	575278	57	1636.4766241189
10	3	1	1641.7216460867
10	16435	2	1643.9295369894
10	23353	3	1647.4627083078
10	23684	4	1652.4412105858
10	48176	5	1658.7167796619
10	65146	6	1666.2887454802
10	72062	7	1675.2038873878
10	72393	8	1685.4160161235
10	79310	9	1695.0165431146
10	97778	10	1701.4520246765
10	120995	11	1706.0534586263
10	122611	12	1708.1498575829
10	130399	13	1701.2852059545
10	131600	14	1692.7464701645
10	156939	15	1682.2587394265
10	172802	16	1669.8299160718
10	180111	17	1655.7933292545
10	181453	18	1644.5413537281
10	190367	19	1637.3476447635
10	209882	20	1629.3920737598
10	234382	21	1623.8288374382
10	235581	22	1623.4
10	243452	23	1623.4
10	244374	24	1623.4
10	269352	25	1623.4
10	287574	26	1623.4
10	294721	27	1623.4
10	295620	28	1623.4
10	303082	29	1623.4
10	320526	30	1623.4
10	343116	31	1623.4
10	343741	32	1623.4
10	351195	33	1623.4
10	352195	34	1623.4
10	373502	35	1623.4
10	390032	36	1623.4
10	396948	37	1623.4
10	397834	38	1623.4
10	404614	39	1623.4
10	418584	40	1623.4
10	440741	41	1623.4
10	441684	42	1623.4
10	447900	43	1623.4
10	449454	44	1623.4
10	467142	45	1623.4
10	482930	46	1623.4
10	488859	47	1623.4
10	489551	48	1623.4
10	495670	49	1625.0730788583
10	508238	50	1626.6
10	528500	51	1626.6
10	529439	52	1626.6
10	535884	53	1626.6
10	537066	54	1626.6
10	554839	55	1626.6
10	568952	56	1626.6
10	575278	57	1626.6
138	23353	3	4.4249378397899
138	23684	4	5.7754321510332
138	48176	5	6.1668223387019
138	65146	6	6.939167429867
138	72062	7	0.973
138	72393	8	0.973
138	79310	9	0.973
138	97778	10	1.2440604257324
138	120995	11	3.4443014862
138	122611	12	5.0242838090674
138	130399	13	6.0412624443508
138	131600	14	6.8755931544711
138	156939	15	7.3147096307199
138	172802	16	2.2951060438271
138	180111	17	2.0106233215382
138	181453	18	2.1569398723699
138	190367	19	1.6896943847878
138	209882	20	1.9204263203388
138	234382	21	2.0424737852002
138	235581	22	2.0720171239229
138	243452	23	1.758435840323
138	244374	24	0.973
138	269352	25	0.973
138	287574	26	0.973
138	294721	27	0.973
138	295620	28	1.5184935599653
138	303082	29	2.9780237637836
138	320526	30	3.7944381144834
138	343116	31	5.7290751106579
138	343741	32	6.6877346016908
138	351195	33	7.5776372256501
138	352195	34	6.0067193831137
138	373502	35	1.6536215802202
138	390032	36	1.86215100255
138	396948	37	2.0377326121175
138	397834	38	2.2063775286602
138	404614	39	1.8057269862181
138	418584	40	1.7169407430546
138	440741	41	2.0536849809032
138	441684	42	1.8418210969998
138	447900	43	2.229062579639
138	449454	44	1.9709659164945
138	467142	45	1.7310356150101
138	482930	46	0.973
138	488859	47	0.973
138	489551	48	0.973
138	495670	49	0.973
138	508238	50	2.1254190474938
138	528500	51	4.2659072150656
138	529439	52	5.1527154316386
138	535884	53	6.8909636447706
138	537066	54	7.8636586809664
138	554839	55	4.421488343131
138	568952	56	1.981785541499
138	575278	57	2.0294225789317
138	575852	58	2.006531098377
137	23353	3	2.0278793733194
137	23684	4	2.1193268082384
137	48176	5	1.8397393485485
137	65146	6	1.7825363025069
137	72062	7	-0.47164569217186
137	72393	8	-4.4946690941475
137	79310	9	-3.4832349805056
137	97778	10	-0.040257394430228
137	120995	11	1.6959971078392
137	122611	12	2.0558707925538
137	130399	13	2.0057005787757
137	131600	14	1.9161535037751
137	156939	15	1.7473023497872
137	172802	16	0.11633853614614
137	180111	17	0.02421450089896
137	181453	18	0.06865363674704
137	190367	19	-0.078401488531382
137	209882	20	-0.0042716009775177
137	234382	21	0.033770683037584
137	235581	22	0.041818457425105
137	243452	23	-0.056733242925256
137	244374	24	-1.0628182636487
137	269352	25	-4.4936474722526
137	287574	26	-4.4806400651282
137	294721	27	-2.914940619092
137	295620	28	1.2054204573424
137	303082	29	2.1237993862301
137	320526	30	1.9137913236488
137	343116	31	2.31412623354
137	343741	32	2.1483664104412
137	351195	33	2.0331867291103
137	352195	34	1.2937842062971
137	373502	35	-0.090086203815881
137	390032	36	-0.022585455134978
137	396948	37	0.032727642629762
137	397834	38	0.083665855673607
137	404614	39	-0.042705929719377
137	418584	40	-0.069330658807885
137	440741	41	0.037533308346756
137	441684	42	-0.029463676570447
137	447900	43	0.0913572645979
137	449454	44	0.0088517037476414
137	467142	45	-0.065878203420434
137	482930	46	-0.59788143856625
137	488859	47	-4.5
137	489551	48	-3.5427889555704
137	495670	49	-0.9382002365496
137	508238	50	0.79938975006808
137	528500	51	1.9272148289601
137	529439	52	1.8750168361329
137	535884	53	2.1308376052626
137	537066	54	2.0464132829523
137	554839	55	0.79549576106532
137	568952	56	0.014062683554366
137	575278	57	0.028371623670683
137	575852	58	0.020415509697051
85	16435	2	4.1059579342117
85	23353	3	6.1338373075312
85	23684	4	8.2531641157696
85	48176	5	10.092903464318
85	65146	6	11.875439766825
85	72062	7	11.403794074653
85	72393	8	6.9091249805056
85	79310	9	3.42589
85	97778	10	3.3856326055698
85	120995	11	5.081629713409
85	122611	12	7.1375005059627
85	130399	13	9.1432010847385
85	131600	14	11.059354588514
85	156939	15	12.806656938301
85	172802	16	12.922995474447
85	180111	17	12.947209975346
85	181453	18	13.015863612093
85	190367	19	12.937462123562
85	209882	20	12.933190522584
85	234382	21	12.966961205622
85	235581	22	13.008779663047
85	243452	23	12.952046420121
85	244374	24	11.889228156473
85	269352	25	7.3955806842202
85	287574	26	2.914940619092
85	294721	27	0
85	295620	28	1.2054204573424
85	303082	29	3.3292198435725
85	320526	30	5.2430111672212
85	343116	31	7.5571374007613
85	343741	32	9.7055038112025
85	351195	33	11.738690540313
85	352195	34	13.03247474661
85	373502	35	12.942388542794
85	390032	36	12.919803087659
85	396948	37	12.952530730289
85	397834	38	13.036196585962
85	404614	39	12.993490656243
85	418584	40	12.924159997435
85	440741	41	12.961693305782
85	441684	42	12.932229629211
85	447900	43	13.023586893809
85	449454	44	13.032438597557
85	467142	45	12.966560394137
85	482930	46	12.36867895557
85	488859	47	7.8686789555704
85	489551	48	4.32589
85	495670	49	3.3876897634504
85	508238	50	4.1870795135185
85	528500	51	6.1142943424786
85	529439	52	7.9893111786115
85	535884	53	10.120148783874
85	537066	54	12.166562066826
85	554839	55	12.962057827892
85	568952	56	12.976120511446
85	575278	57	13.004492135117
85	575852	58	13.024907644814
39	3	1	1120.2
39	16435	2	1123.4
39	23353	3	1123.4
39	23684	4	1123.4
39	48176	5	1123.4
39	65146	6	1123.4
39	72062	7	1123.4
39	72393	8	1123.4
39	79310	9	1123.9534217872
39	97778	10	1126.4311383658
39	120995	11	1126.6
39	122611	12	1126.6
39	130399	13	1126.6
39	131600	14	1126.6
39	156939	15	1126.6
39	172802	16	1126.6
39	180111	17	1126.6
39	181453	18	1126.6
39	190367	19	1126.6
39	209882	20	1126.6
39	234382	21	1126.6
39	235581	22	1126.6
39	243452	23	1126.6
39	244374	24	1126.6
39	269352	25	1126.6
39	287574	26	1126.0194706131
39	294721	27	1125.90431338
39	295620	28	1125.8523911106
39	303082	29	1124.6324139785
39	320526	30	1121.5308200726
39	343116	31	1115.4036951414
39	343741	32	1106.6625174929
39	351195	33	1095.8475340736
39	352195	34	1083.2235362057
39	373502	35	1070.2429436211
39	390032	36	1057.2766267684
39	396948	37	1044.3168970015
39	397834	38	1031.4160565482
39	404614	39	1020.3445351692
39	418584	40	1008.5586685778
39	440741	41	999.38641105967
39	441684	42	990.22645484381
39	447900	43	981.04532205335
39	449454	44	971.8665251559
39	467142	45	962.69870388298
39	482930	46	953.57250277461
39	488859	47	946.57665235476
39	489551	48	942.37068187108
39	495670	49	939.48448677225
39	508238	50	940.82341841256
39	528500	51	944.53376377549
39	529439	52	949.60536893846
39	535884	53	956.06628611401
39	537066	54	963.97991983677
39	554839	55	973.06285784937
39	568952	56	982.23119552063
39	575278	57	991.40867350512
39	575852	58	1000.5612376656
38	3	1	1008.4068740915
38	16435	2	1005.1352061025
38	23353	3	999.86386416093
38	23684	4	992.56595945452
38	48176	5	983.31512083904
38	65146	6	972.23113554964
38	72062	7	959.88791453697
38	72393	8	950.95805428115
38	79310	9	946.44986731925
38	97778	10	947.02670754876
38	120995	11	951.15382913271
38	122611	12	957.43142174514
38	130399	13	965.62708532323
38	131600	14	975.79250024209
38	156939	15	987.78472547296
38	172802	16	1000.7578838234
38	180111	17	1013.7268271768
38	181453	18	1026.71493229
38	190367	19	1039.6823837432
38	209882	20	1052.671464091
38	234382	21	1065.633948786
38	235581	22	1078.6132218552
38	243452	23	1091.5796615546
38	244374	24	1104.3583363228
38	269352	25	1113.7738349848
38	287574	26	1118.655529238
38	294721	27	1119.4600079371
38	295620	28	1119.8326644478
38	303082	29	1121.8793100359
38	320526	30	1124.8415079564
38	343116	31	1126.4851864084
38	343741	32	1129.8
38	351195	33	1129.8
38	352195	34	1129.8
38	373502	35	1129.8
38	390032	36	1129.8
38	396948	37	1129.8
38	397834	38	1130.582870984
38	404614	39	1137.201300733
38	418584	40	1143.7113314222
38	440741	41	1152.8835889403
38	441684	42	1162.0435451562
38	447900	43	1171.2246779467
38	449454	44	1180.4034748441
38	467142	45	1189.571296117
38	482930	46	1198.6974972254
38	488859	47	1205.6933476452
38	489551	48	1209.8993181289
38	495670	49	1209.9686205586
38	508238	50	1206.9065815874
38	528500	51	1203.1962362245
38	529439	52	1198.1246310615
38	535884	53	1191.663713886
38	537066	54	1183.7500801632
38	554839	55	1174.6671421506
38	568952	56	1165.4988044794
38	575278	57	1156.3213264949
38	575852	58	1147.1687623344
148	23353	3	3.9241949181054
148	23684	4	5.351959021813
148	48176	5	6.8873860718317
148	65146	6	6.2445398636534
148	72062	7	6.7684631988713
148	72393	8	1.8859291582073
148	79310	9	1.9819831575513
148	97778	10	1.682255778501
148	120995	11	2.0142042891082
148	122611	12	1.9828425935787
148	130399	13	1.9205061234223
148	131600	14	2.0984070254663
148	156939	15	0.973
148	172802	16	0.973
148	180111	17	0.973
148	181453	18	0.973
148	190367	19	2.0466388963891
148	209882	20	4.1940309505383
148	234382	21	5.4224500413447
148	235581	22	6.1958792836251
148	243452	23	6.8059044569657
148	244374	24	5.9704585119837
148	269352	25	1.9516314362214
148	287574	26	2.1578305983913
148	294721	27	1.8439768961026
148	295620	28	1.7119988170626
148	303082	29	1.9466847773391
148	320526	30	1.8958703231962
148	343116	31	2.1594521897019
148	343741	32	1.8167352169486
148	351195	33	2.0671160611872
148	352195	34	2.0370212361495
148	373502	35	1.8765514694085
148	390032	36	1.968597790072
148	396948	37	2.0087673962061
148	397834	38	1.680773800222
148	404614	39	2.2474438950492
148	418584	40	1.9525115462502
148	440741	41	1.9150447636458
148	441684	42	1.5966778805564
148	447900	43	2.1602704937043
148	449454	44	1.94573235595
148	467142	45	1.716682957958
148	482930	46	2.0023101866964
148	488859	47	2.0357914227195
148	489551	48	0.973
148	495670	49	0.973
148	508238	50	4.3107502871618
148	528500	51	1.5234649254646
148	529439	52	1.5014965392304
148	535884	53	3.5985980372539
148	537066	54	6.451151645104
148	554839	55	7.9595650270458
148	568952	56	3.0386414240814
148	575278	57	1.827783920736
148	575852	58	1.7111019504514
148	581629	59	2.1216147184416
148	592563	60	2.0368307070482
148	611074	61	1.9721751758999
147	23353	3	1.8575250018737
147	23684	4	2.0619805084006
147	48176	5	2.1863248304697
147	65146	6	1.6029962962982
147	72062	7	1.5367557007541
147	72393	8	-0.017627098548692
147	79310	9	0.012608703055886
147	97778	10	-0.080933791978751
147	120995	11	0.024683737338055
147	122611	12	0.014202299895697
147	130399	13	-0.0055551915545955
147	131600	14	0.049630128585269
147	156939	15	-0.49050910151141
147	172802	16	-4.3900443680449
147	180111	17	-3.4377036586007
147	181453	18	-1.3096934735294
147	190367	19	0.73378864268307
147	209882	20	1.90534826583
147	234382	21	2.0010362277064
147	235581	22	1.8879695488978
147	243452	23	1.7683088197699
147	244374	24	1.2885569086686
147	269352	25	0.0040672822203494
147	287574	26	0.06753912464017
147	294721	27	-0.031339642158709
147	295620	28	-0.071614190121181
147	303082	29	0.0034638537047442
147	320526	30	-0.01244517879095
147	343116	31	0.069563987308648
147	343741	32	-0.038661190306303
147	351195	33	0.04007364346413
147	352195	34	0.029514778309968
147	373502	35	-0.020931648071857
147	390032	36	0.0081442286749382
147	396948	37	0.020287542231381
147	397834	38	-0.082025672108868
147	404614	39	0.095656256920194
147	418584	40	0.0019274259125819
147	440741	41	-0.009683646974155
147	441684	42	-0.10847947983071
147	447900	43	0.069630246770101
147	449454	44	0.0012124299723659
147	467142	45	-0.070043844752945
147	482930	46	0.020813961611129
147	488859	47	0.030525819920005
147	489551	48	-1.958151216095
147	495670	49	-4.4484226661364
147	508238	50	1.4302392335898
147	528500	51	-0.010696943125222
147	529439	52	-0.021397818333935
147	535884	53	0.92705720272148
147	537066	54	1.8194051794265
147	554839	55	1.9736128043476
147	568952	56	0.34723618845154
147	575278	57	-0.036480279746465
147	575852	58	-0.071878370021004
147	581629	59	0.057633772857953
147	592563	60	0.029623286458664
147	611074	61	0.00877506621182
90	16435	2	3.7839128130107
90	23353	3	5.6414378148844
90	23684	4	7.703418323285
90	48176	5	9.8897431537547
90	65146	6	11.492739450053
90	72062	7	13.029495150807
90	72393	8	13.011868052258
90	79310	9	13.024476755314
90	97778	10	12.943542963335
90	120995	11	12.968226700674
90	122611	12	12.982429000569
90	130399	13	12.976873809015
90	131600	14	13.0265039376
90	156939	15	12.535994836088
90	172802	16	8.1459504680436
90	180111	17	4.7082468094429
90	181453	18	3.3985533359135
90	190367	19	4.1323419785966
90	209882	20	6.0376902444266
90	234382	21	8.0387264721329
90	235581	22	9.9266960210307
90	243452	23	11.695004840801
90	244374	24	12.983561749469
90	269352	25	12.98762903169
90	287574	26	13.05516815633
90	294721	27	13.023828514171
90	295620	28	12.95221432405
90	303082	29	12.955678177755
90	320526	30	12.943232998964
90	343116	31	13.012796986272
90	343741	32	12.974135795966
90	351195	33	13.01420943943
90	352195	34	13.04372421774
90	373502	35	13.022792569668
90	390032	36	13.030936798343
90	396948	37	13.051224340575
90	397834	38	12.969198668466
90	404614	39	13.064854925386
90	418584	40	13.066782351298
90	440741	41	13.057098704324
90	441684	42	12.948619224494
90	447900	43	13.018249471264
90	449454	44	13.019461901236
90	467142	45	12.949418056483
90	482930	46	12.970232018094
90	488859	47	13.000757838014
90	489551	48	11.042606621919
90	495670	49	6.5941839557828
90	508238	50	8.0244231893727
90	528500	51	8.0137262462475
90	529439	52	7.9923284279135
90	535884	53	8.919385630635
90	537066	54	10.738790810062
90	554839	55	12.712403614409
90	568952	56	13.059639802861
90	575278	57	13.023159523114
90	575852	58	12.951281153093
90	581629	59	13.008914925951
90	592563	60	13.03853821241
90	611074	61	13.047313278622
49	3	1	746.72825146871
49	16435	2	749.70520561448
49	23353	3	754.46047706545
49	23684	4	761.29752245419
49	48176	5	770.2046780695
49	65146	6	780.97556092712
49	72062	7	793.42430779305
49	72393	8	806.43151378387
49	79310	9	819.41894530704
49	97778	10	832.40972782978
49	120995	11	845.41961541702
49	122611	12	858.41977290301
49	130399	13	871.40747010437
49	131600	14	884.41188353009
49	156939	15	897.35408525086
49	172802	16	907.51829460777
49	180111	17	913.79335063811
49	181453	18	916.03388834072
49	190367	19	913.02878050098
49	209882	20	907.82518993841
49	234382	21	900.68512267099
49	235581	22	891.56995878204
49	243452	23	880.68096336799
49	244374	24	868.05810708314
49	269352	25	855.03997064317
49	287574	26	842.02805646091
49	294721	27	829.03195797406
49	295620	28	816.03233593985
49	303082	29	803.04666266461
49	320526	30	790.03465236808
49	343116	31	777.03408127644
49	343741	32	764.02329563588
49	351195	33	751.02757435839
49	352195	34	738.03488397256
49	373502	35	725.02530382856
49	390032	36	712.02004359377
49	396948	37	699.02445796244
49	397834	38	686.02038939633
49	404614	39	673.00363629098
49	418584	40	659.98685050439
49	440741	41	646.96742237246
49	441684	42	633.95523674035
49	447900	43	620.94529339641
49	449454	44	607.95918643207
49	467142	45	594.95821276126
49	482930	46	581.95821069352
49	488859	47	568.94674381279
49	489551	48	556.48471611002
49	495670	49	547.87586796706
49	508238	50	540.86759710016
49	528500	51	536.24457448391
49	529439	52	537.70592914699
49	535884	53	542.82390286192
49	537066	54	549.85010607476
49	554839	55	558.20197185623
49	568952	56	567.38555350937
49	575278	57	576.59028167952
49	575852	58	585.77792369513
49	581629	59	594.96952706306
49	592563	60	604.1619493168
49	611074	61	613.36893470363
48	3	1	1520.2
48	16435	2	1520.2
48	23353	3	1520.2
48	23684	4	1523.4
48	48176	5	1523.4
48	65146	6	1523.4
48	72062	7	1523.4
48	72393	8	1523.4
48	79310	9	1523.4
48	97778	10	1523.4
48	120995	11	1523.4
48	122611	12	1523.4
48	130399	13	1523.4
48	131600	14	1523.4
48	156939	15	1523.4
48	172802	16	1523.4
48	180111	17	1523.4
48	181453	18	1525.3322233186
48	190367	19	1526.6
48	209882	20	1526.6
48	234382	21	1526.6
48	235581	22	1526.6
48	243452	23	1526.6
48	244374	24	1526.6
48	269352	25	1526.6
48	287574	26	1526.6
48	294721	27	1526.6
48	295620	28	1526.6
48	303082	29	1526.6
48	320526	30	1526.6
48	343116	31	1526.6
48	343741	32	1526.6
48	351195	33	1526.6
48	352195	34	1526.6
48	373502	35	1526.6
48	390032	36	1526.6
48	396948	37	1526.6
48	397834	38	1526.6
48	404614	39	1526.6
48	418584	40	1526.6
48	440741	41	1526.6
48	441684	42	1526.6
48	447900	43	1526.6
48	449454	44	1526.6
48	467142	45	1526.6
48	482930	46	1526.6
48	488859	47	1526.6
48	489551	48	1526.6
48	495670	49	1526.6
48	508238	50	1524.9671940997
48	528500	51	1518.8733885345
48	529439	52	1511.3399945644
48	535884	53	1504.9064888611
48	537066	54	1497.8811447024
48	554839	55	1489.5303000562
48	568952	56	1480.3478412276
48	575278	57	1471.1442384674
48	575852	58	1461.9577197727
48	581629	59	1452.7672402101
48	592563	60	1443.5759418617
48	611074	61	1434.3700821609
112	23353	3	4.3946844027024
112	23684	4	5.614289894367
112	48176	5	6.1221580277929
112	65146	6	6.5409263347127
112	72062	7	6.3876355302386
112	72393	8	2.0969969830298
112	79310	9	1.7782860027626
112	97778	10	1.7684229761904
112	120995	11	0.973
112	122611	12	0.973
112	130399	13	1.4445186106267
112	131600	14	1.6279871621967
112	156939	15	5.1287723670504
112	172802	16	6.3457241296248
112	180111	17	7.572782051562
112	181453	18	5.5648121271279
112	190367	19	2.1127235763378
112	209882	20	2.0721643362087
112	234382	21	1.8854095188873
112	235581	22	1.6767091327436
112	243452	23	2.2113798133395
112	244374	24	2.0505660184042
112	269352	25	1.9646282492296
112	287574	26	0.973
112	294721	27	0.973
112	295620	28	5.9305992264891
112	303082	29	6.0983731591566
112	320526	30	7.3728244492746
112	343116	31	6.5668659054435
112	343741	32	1.9480882215065
112	351195	33	1.656187120493
112	352195	34	2.2658730155256
112	373502	35	1.8984048401457
112	390032	36	2.0049000000124
112	396948	37	1.9846240581958
112	397834	38	0.973
112	404614	39	0.973
112	418584	40	5.9334994668661
112	440741	41	6.6345721950318
112	441684	42	6.7978848648413
112	447900	43	6.2057765942714
112	449454	44	2.145560908066
112	467142	45	1.9978649572552
112	482930	46	1.8825881766554
112	488859	47	1.8584644708746
112	489551	48	0.973
112	495670	49	0.973
112	508238	50	6.5735395204183
112	528500	51	5.8845092990746
112	529439	52	7.3485043448765
112	535884	53	4.5247588327296
112	537066	54	2.2185261062626
112	554839	55	1.7709689658079
112	568952	56	2.0107321633112
112	575278	57	2.0207209252562
112	575852	58	1.8609325814564
112	581629	59	2.0592802866021
112	592563	60	1.77676685952
112	611074	61	1.7666520252261
112	611929	62	1.9326195762632
112	616754	63	2.1954473429272
112	617489	64	1.8637444087884
112	631608	65	2.0563815637995
112	644162	66	1.7270915472485
111	23353	3	2.0351562025188
111	23684	4	2.0728239309206
111	48176	5	1.8459985194961
111	65146	6	1.6806377231912
111	72062	7	1.4100500408085
111	72393	8	0.046178630634676
111	79310	9	-0.053261190925259
111	97778	10	-0.054961403468855
111	120995	11	-4.3891176987067
111	122611	12	-2.7737685719738
111	130399	13	0.023227076942566
111	131600	14	0.14357964300783
111	156939	15	1.8873128044186
111	172802	16	1.9652106264979
111	180111	17	2.0053335216618
111	181453	18	1.1542559933479
111	190367	19	0.052515258896165
111	209882	20	0.038365404577926
111	234382	21	-0.020147588916588
111	235581	22	-0.084279392848257
111	243452	23	0.083194407522679
111	244374	24	0.031204826924949
111	269352	25	0.0039131506858396
111	287574	26	-3.2168267874527
111	294721	27	-4.5
111	295620	28	2.3531364620361
111	303082	29	1.9048256620322
111	320526	30	1.9789427765273
111	343116	31	1.461255887229
111	343741	32	-0.00072792987339199
111	351195	33	-0.091009832215496
111	352195	34	0.099543889758642
111	373502	35	-0.01623137601884
111	390032	36	0.01696275886381
111	396948	37	0.010230358403643
111	397834	38	-3.2273693787271
111	404614	39	-4.4672283642648
111	418584	40	2.3486638342775
111	440741	41	2.0857016284834
111	441684	42	1.7750637767487
111	447900	43	1.3610773028446
111	449454	44	0.063235200906638
111	467142	45	0.015833697421476
111	482930	46	-0.020148787770886
111	488859	47	-0.027047997813206
111	489551	48	-3.645819687068
111	495670	49	-3.08
111	508238	50	2.3798697955254
111	528500	51	1.670924586968
111	529439	52	1.8607352738013
111	535884	53	0.82105252799114
111	537066	54	0.084208619522396
111	554839	55	-0.055817126252224
111	568952	56	0.01967176014092
111	575278	57	0.022128605747129
111	575852	58	-0.027656526574866
111	581629	59	0.034117820034735
111	592563	60	-0.053830497495364
111	611074	61	-0.055596029709559
111	611929	62	-0.0025819675181999
111	616754	63	0.07840591737302
111	617489	64	-0.02604180655675
111	631608	65	0.034043480867984
111	644162	66	-0.068596175734418
72	16435	2	4.0239826316459
72	23353	3	6.0591388341648
72	23684	4	8.1319627650853
72	48176	5	9.9779612845814
72	65146	6	11.658599007773
72	72062	7	13.068649048581
72	72393	8	13.114827679216
72	79310	9	13.061566488291
72	97778	10	13.006605084822
72	120995	11	8.617487386115
72	122611	12	5.8437188141412
72	130399	13	5.8669458910838
72	131600	14	6.0105255340916
72	156939	15	7.8978383385102
72	172802	16	9.8630489650081
72	180111	17	11.86838248667
72	181453	18	13.022638480018
72	190367	19	13.075153738914
72	209882	20	13.113519143492
72	234382	21	13.093371554575
72	235581	22	13.009092161727
72	243452	23	13.09228656925
72	244374	24	13.123491396175
72	269352	25	13.12740454686
72	287574	26	9.9105777594078
72	294721	27	5.4105777594078
72	295620	28	7.7637142214439
72	303082	29	9.6685398834761
72	320526	30	11.647482660003
72	343116	31	13.108738547232
72	343741	32	13.108010617359
72	351195	33	13.017000785143
72	352195	34	13.116544674902
72	373502	35	13.100313298883
72	390032	36	13.117276057747
72	396948	37	13.127506416151
72	397834	38	9.9001370374236
72	404614	39	5.4329086731588
72	418584	40	7.7815725074363
72	440741	41	9.8672741359197
72	441684	42	11.642337912668
72	447900	43	13.003415215513
72	449454	44	13.06665041642
72	467142	45	13.082484113841
72	482930	46	13.06233532607
72	488859	47	13.035287328257
72	489551	48	9.3894676411891
72	495670	49	6.3094676411891
72	508238	50	8.6893374367145
72	528500	51	10.360262023683
72	529439	52	12.220997297484
72	535884	53	13.042049825475
72	537066	54	13.126258444997
72	554839	55	13.070441318745
72	568952	56	13.090113078886
72	575278	57	13.112241684633
72	575852	58	13.084585158058
72	581629	59	13.118702978093
72	592563	60	13.064872480598
72	611074	61	13.009276450888
72	611929	62	13.00669448337
72	616754	63	13.085100400743
72	617489	64	13.059058594186
72	631608	65	13.093102075054
72	644162	66	13.02450589932
13	3	1	1240.5980885916
13	16435	2	1242.7995181547
13	23353	3	1246.4490259034
13	23684	4	1251.5445052697
13	48176	5	1257.9535097038
13	65146	6	1265.6819584186
13	72062	7	1274.5803746104
13	72393	8	1283.83619307
13	79310	9	1293.0747354559
13	97778	10	1302.3116769196
13	120995	11	1309.837175498
13	122611	12	1314.676819592
13	130399	13	1319.3998939783
13	131600	14	1320.2
13	156939	15	1320.2
13	172802	16	1320.2
13	180111	17	1320.2
13	181453	18	1320.2
13	190367	19	1320.2
13	209882	20	1320.2
13	234382	21	1320.2
13	235581	22	1320.2
13	243452	23	1320.2
13	244374	24	1320.2
13	269352	25	1320.2
13	287574	26	1320.2
13	294721	27	1320.2
13	295620	28	1320.018612517
13	303082	29	1319.4451113217
13	320526	30	1316.9883390502
13	343116	31	1311.0675139564
13	343741	32	1302.2833880699
13	351195	33	1293.0470695071
13	352195	34	1283.7977131786
13	373502	35	1274.5493948097
13	390032	36	1265.3168881661
13	396948	37	1256.0606813239
13	397834	38	1247.7305295412
13	404614	39	1242.4570196814
13	418584	40	1237.5773681907
13	440741	41	1230.8850172085
13	441684	42	1221.6974055173
13	447900	43	1209.3590693496
13	449454	44	1196.3028816632
13	467142	45	1183.2353886717
13	482930	46	1170.1599747205
13	488859	47	1157.0985345627
13	489551	48	1145.7351423927
13	495670	49	1138.6076747515
13	508238	50	1130.97005707
13	528500	51	1121.5408590831
13	529439	52	1111.3187226719
13	535884	53	1099.8285415723
13	537066	54	1088.1442982484
13	554839	55	1076.4579473153
13	568952	56	1064.768547138
13	575278	57	1053.0894471131
13	575852	58	1041.4070989103
13	581629	59	1029.6969241564
13	592563	60	1018.0180320087
13	611074	61	1006.3350983128
13	611929	62	994.65227453885
13	616754	63	982.95313004562
13	617489	64	971.27889988271
13	631608	65	959.5805027513
13	644162	66	947.89934788966
12	3	1	1833.8080885916
12	16435	2	1836.0095181547
12	23353	3	1839.6590259034
12	23684	4	1844.7545052697
12	48176	5	1851.1635097038
12	65146	6	1858.8919584186
12	72062	7	1867.7903746104
12	72393	8	1877.04619307
12	79310	9	1886.2847354559
12	97778	10	1895.5216769196
12	120995	11	1903.047175498
12	122611	12	1907.4745328468
12	130399	13	1907.3763405364
12	131600	14	1901.6403652823
12	156939	15	1894.6148258712
12	172802	16	1885.645680849
12	180111	17	1874.7393995767
12	181453	18	1861.9474397946
12	190367	19	1848.8762053165
12	209882	20	1835.8188554019
12	234382	21	1822.7655134656
12	235581	22	1809.7047221466
12	243452	23	1796.6507535378
12	244374	24	1783.5881431952
12	269352	25	1770.5187040898
12	287574	26	1758.7101033418
12	294721	27	1751.2745255824
12	295620	28	1744.5090675288
12	303082	29	1735.7480821642
12	320526	30	1725.2225656595
12	343116	31	1714.2040823179
12	343741	32	1704.5533880699
12	351195	33	1695.3170695071
12	352195	34	1686.0677131786
12	373502	35	1676.8193948097
12	390032	36	1667.5868881661
12	396948	37	1658.3306813239
12	397834	38	1650.0005295412
12	404614	39	1644.7270196814
12	418584	40	1640.0154860351
12	440741	41	1634.1550653944
12	441684	42	1628.4700643694
12	447900	43	1626.6
12	449454	44	1626.6
12	467142	45	1626.6
12	482930	46	1626.6
12	488859	47	1626.6
12	489551	48	1626.6
12	495670	49	1626.6
12	508238	50	1626.385894588
12	528500	51	1624.9252683586
12	529439	52	1620.0378725006
12	535884	53	1614.1992707861
12	537066	54	1608.3571491242
12	554839	55	1602.5139736576
12	568952	56	1596.669273569
12	575278	57	1590.8297235566
12	575852	58	1584.9885494552
12	581629	59	1579.1334620782
12	592563	60	1573.2940160044
12	611074	61	1567.4525491564
12	611929	62	1561.6111372694
12	616754	63	1555.7615650228
12	617489	64	1549.9244499414
12	631608	65	1544.0752513756
12	644162	66	1538.2346739448
118	23353	3	4.8081316434209
118	23684	4	5.4146322858153
118	48176	5	6.8797852958718
118	65146	6	7.8847869781173
118	72062	7	8.9297331815843
118	72393	8	9.9348775047682
118	79310	9	7.7209236569933
118	97778	10	2.6671660727894
118	120995	11	2.2990191283222
118	122611	12	2.3731490561837
118	130399	13	2.6807222499862
118	131600	14	2.1602497755439
118	156939	15	2.500209945649
118	172802	16	2.4811214646813
118	180111	17	2.2482358081878
118	181453	18	2.6371318556346
118	190367	19	2.3802258452785
118	209882	20	2.470227809715
118	234382	21	2.2694779706409
118	235581	22	2.7502102526277
118	243452	23	2.1770021022058
118	244374	24	2.5786606302645
118	269352	25	2.7307963551378
118	287574	26	2.5014787777157
118	294721	27	2.0828370077278
118	295620	28	2.8251434790506
118	303082	29	2.4027173535234
118	320526	30	0.973
118	343116	31	0.973
118	343741	32	0.973
118	351195	33	5.8787885642116
118	352195	34	6.0085824924198
118	373502	35	7.1867674733983
118	390032	36	8.5255436631598
118	396948	37	9.5040925749426
118	397834	38	10.013866787987
118	404614	39	2.4552750286085
118	418584	40	2.6803319931078
118	440741	41	2.4951224906431
118	441684	42	2.3805657034693
118	447900	43	2.437849169474
118	449454	44	2.4582589740342
118	467142	45	2.373999035775
118	482930	46	2.288232829923
118	488859	47	2.5250629014092
118	489551	48	2.4077265893691
118	495670	49	2.6857383440666
118	508238	50	2.7043678051733
118	528500	51	2.2932767567461
118	529439	52	2.6312918744991
118	535884	53	2.4093415365336
118	537066	54	2.1127527561323
118	554839	55	2.5894607948027
118	568952	56	1.6939445420971
118	575278	57	0.973
118	575852	58	0.973
118	581629	59	0.973
118	592563	60	0.973
118	611074	61	3.5237949609632
118	611929	62	5.491326653416
118	616754	63	6.7597209426211
118	617489	64	7.9290511531165
118	631608	65	8.4150128413174
118	644162	66	9.9082251001225
118	648975	67	8.850930525527
118	649681	68	2.3084207721913
118	654293	69	2.610239132984
118	664804	70	2.7542154134432
118	679917	71	2.2124137002696
118	680409	72	2.6546750588133
118	685016	73	1.9759653145866
117	23353	3	2.1863907491742
117	23684	4	1.922632479337
117	48176	5	2.0658326156763
117	65146	6	2.0104638326005
117	72062	7	1.9793046276993
117	72393	8	1.9430956055061
117	79310	9	1.2444316152634
117	97778	10	0.048154465707483
117	120995	11	-0.037526356214656
117	122611	12	-0.019422203914729
117	130399	13	0.051537031442859
117	131600	14	-0.069283092187252
117	156939	15	0.010849878105802
117	172802	16	0.0061376296170046
117	180111	17	-0.047571591937448
117	181453	18	0.043185193820388
117	190367	19	-0.017069095557087
117	209882	20	0.0041126324376073
117	234382	21	-0.042185548529961
117	235581	22	0.069428250989876
117	243452	23	-0.06427530398825
117	244374	24	0.03001709208591
117	269352	25	0.063797745124901
117	287574	26	0.0093815557286128
117	294721	27	-0.087045268604996
117	295620	28	0.085766206996048
117	303082	29	-0.013457555007189
117	320526	30	-3.3685765985136
117	343116	31	-4.4954428794072
117	343741	32	-3.7899416099076
117	351195	33	2.2077784501924
117	352195	34	1.8070440209261
117	373502	35	1.87974439668
117	390032	36	1.9601678012917
117	396948	37	1.9234688343643
117	397834	38	1.7940852427877
117	404614	39	0.0014823086978843
117	418584	40	0.05301408277359
117	440741	41	0.0089401092636407
117	441684	42	-0.017591657191517
117	447900	43	-0.0039192251372135
117	449454	44	0.00088159930659515
117	467142	45	-0.018488267178181
117	482930	46	-0.037692573876122
117	488859	47	0.017931211513933
117	489551	48	-0.0095910502807222
117	495670	49	0.054467820553107
117	508238	50	0.056888446339872
117	528500	51	-0.038873544759117
117	529439	52	0.039636964176317
117	535884	53	-0.012299352881964
117	537066	54	-0.080098153697328
117	554839	55	0.031797906877472
117	568952	56	-0.17625496488256
117	575278	57	-4.4726636183664
117	575852	58	-4.5
117	581629	59	-2.8662301477526
117	592563	60	-1.024642909735
117	611074	61	1.4645087366132
117	611929	62	2.0442974489508
117	616754	63	2.0829940512846
117	617489	64	2.0691919991933
117	631608	65	1.8821534500481
117	644162	66	1.9794193848548
117	648975	67	1.5132669717953
117	649681	68	-0.033563749308232
117	654293	69	0.036738947089763
117	664804	70	0.06836371195968
117	679917	71	-0.057664331262931
117	680409	72	0.045331643766257
117	685016	73	-0.11188598088222
75	16435	2	4.2014862567156
75	23353	3	6.3878770058898
75	23684	4	8.3105094852268
75	48176	5	10.376342100903
75	65146	6	12.386805933504
75	72062	7	14.366110561203
75	72393	8	16.309206166709
75	79310	9	17.553637781972
75	97778	10	17.60179224768
75	120995	11	17.564265891465
75	122611	12	17.544843687551
75	130399	13	17.596380718993
75	131600	14	17.527097626806
75	156939	15	17.537947504912
75	172802	16	17.544085134529
75	180111	17	17.496513542592
75	181453	18	17.539698736412
75	190367	19	17.522629640855
75	209882	20	17.526742273292
75	234382	21	17.484556724762
75	235581	22	17.553984975752
75	243452	23	17.489709671764
75	244374	24	17.51972676385
75	269352	25	17.583524508975
75	287574	26	17.592906064704
75	294721	27	17.505860796099
75	295620	28	17.591627003095
75	303082	29	17.578169448087
75	320526	30	14.209592849574
75	343116	31	9.7141499701666
75	343741	32	5.924208360259
75	351195	33	8.1319868104515
75	352195	34	9.9390308313776
75	373502	35	11.818775228058
75	390032	36	13.778943029349
75	396948	37	15.702411863714
75	397834	38	17.496497106501
75	404614	39	17.497979415199
75	418584	40	17.550993497973
75	440741	41	17.559933607236
75	441684	42	17.542341950045
75	447900	43	17.538422724908
75	449454	44	17.539304324214
75	467142	45	17.520816057036
75	482930	46	17.48312348316
75	488859	47	17.501054694674
75	489551	48	17.491463644393
75	495670	49	17.545931464946
75	508238	50	17.602819911286
75	528500	51	17.563946366527
75	529439	52	17.603583330703
75	535884	53	17.591283977821
75	537066	54	17.511185824124
75	554839	55	17.542983731002
75	568952	56	17.366728766119
75	575278	57	12.894065147753
75	575852	58	8.3940651477526
75	581629	59	5.527835
75	592563	60	4.503192090265
75	611074	61	5.9677008268782
75	611929	62	8.011998275829
75	616754	63	10.094992327114
75	617489	64	12.164184326307
75	631608	65	14.046337776355
75	644162	66	16.02575716121
75	648975	67	17.539024133005
75	649681	68	17.505460383697
75	654293	69	17.542199330787
75	664804	70	17.610563042746
75	679917	71	17.552898711483
75	680409	72	17.59823035525
75	685016	73	17.486344374367
19	3	1	1108.4083447718
19	16435	2	1105.1547051362
19	23353	3	1099.7520707798
19	23684	4	1092.2389095707
19	48176	5	1082.8217735131
19	65146	6	1071.3048278481
19	72062	7	1057.866730389
19	72393	8	1042.4296479717
19	79310	9	1025.1953743836
19	97778	10	1007.6404760121
19	120995	11	990.08029096737
19	122611	12	972.52092013348
19	130399	13	954.98461909502
19	131600	14	937.44687132375
19	156939	15	919.89840219712
19	172802	16	902.34678217676
19	180111	17	884.82020284124
19	181453	18	867.26323365232
19	190367	19	849.71263091014
19	209882	20	832.15752941004
19	234382	21	814.61955926481
19	235581	22	797.07529229049
19	243452	23	779.54618962156
19	244374	24	762.00098174046
19	269352	25	744.45243871303
19	287574	26	726.8910291375
19	294721	27	709.3628832374
19	295620	28	691.82361368457
19	303082	29	674.29345512025
19	320526	30	658.16250779747
19	343116	31	646.42745923584
19	343741	32	639.11728590964
19	351195	33	631.89591420869
19	352195	34	622.7827916627
19	373502	35	611.77218372371
19	390032	36	598.91087321108
19	396948	37	584.11786857451
19	397834	38	567.29902732822
19	404614	39	549.76516559872
19	418584	40	532.21179602045
19	440741	41	514.6619559455
19	441684	42	497.1217402377
19	447900	43	479.58222120552
19	449454	44	462.0500966586
19	467142	45	444.50677489098
19	482930	46	427.6335136828
19	488859	47	416.00913412855
19	489551	48	408.02118308734
19	495670	49	400.16847991567
19	508238	50	392.31520302762
19	528500	51	384.46979876411
19	529439	52	376.61944656814
19	535884	53	368.77247085888
19	537066	54	360.92991745092
19	554839	55	353.07904160665
19	568952	56	345.23747009261
19	575278	57	338.56559982096
19	575852	58	333.90614895528
19	581629	59	330.9446743
19	592563	60	332.58141719136
19	611074	61	335.25302269688
19	611929	62	338.41469095459
19	616754	63	342.53744922372
19	617489	64	347.55377060916
19	631608	65	353.45080239053
19	644162	66	360.23222223374
19	648975	67	367.8316435194
19	649681	68	375.67341243974
19	654293	69	383.51268498385
19	664804	70	391.35753855776
19	679917	71	399.19667755405
19	680409	72	407.05285498224
19	685016	73	414.90287562223
18	3	1	1129.8
18	16435	2	1129.8
18	23353	3	1129.8
18	23684	4	1129.8
18	48176	5	1129.8
18	65146	6	1129.8
18	72062	7	1129.8
18	72393	8	1129.8
18	79310	9	1129.8
18	97778	10	1129.8
18	120995	11	1129.8
18	122611	12	1129.8
18	130399	13	1129.8
18	131600	14	1129.8
18	156939	15	1129.8
18	172802	16	1129.8
18	180111	17	1129.8
18	181453	18	1129.8
18	190367	19	1129.8
18	209882	20	1129.8
18	234382	21	1129.8
18	235581	22	1129.8
18	243452	23	1129.8
18	244374	24	1129.8
18	269352	25	1129.8
18	287574	26	1129.8
18	294721	27	1129.8
18	295620	28	1129.8
18	303082	29	1129.8
18	320526	30	1129.8
18	343116	31	1129.8
18	343741	32	1129.8
18	351195	33	1129.8
18	352195	34	1129.8
18	373502	35	1129.8
18	390032	36	1129.8
18	396948	37	1129.8
18	397834	38	1126.6
18	404614	39	1126.6
18	418584	40	1126.6
18	440741	41	1126.6
18	441684	42	1126.6
18	447900	43	1126.6
18	449454	44	1126.6
18	467142	45	1126.6
18	482930	46	1122.9995219722
18	488859	47	1110.2385535957
18	489551	48	1094.6223661747
18	495670	49	1078.9169598313
18	508238	50	1063.2104060552
18	528500	51	1047.5195975282
18	529439	52	1031.8188931363
18	535884	53	1016.1249417178
18	537066	54	1000.4398349018
18	554839	55	984.7380832133
18	568952	56	969.05494018523
18	575278	57	955.71119964191
18	575852	58	946.39229791057
18	581629	59	940.46934860001
18	592563	60	937.75849630223
18	611074	61	941.93604539375
18	611929	62	948.25938190917
18	616754	63	956.50489844744
18	617489	64	966.53754121831
18	631608	65	978.33160478107
18	644162	66	991.89444446747
18	648975	67	1007.0932870388
18	649681	68	1022.7768248795
18	654293	69	1038.4553699677
18	664804	70	1054.1450771155
18	679917	71	1069.8233551081
18	680409	72	1085.5357099645
18	685016	73	1101.2357512445
116	23353	3	4.4082561282597
116	23684	4	4.8210075919737
116	48176	5	6.2356519613767
116	65146	6	7.4373896448924
116	72062	7	8.5705487310187
116	72393	8	4.7326938849181
116	79310	9	2.0047674340801
116	97778	10	2.151466683148
116	120995	11	2.2405506104513
116	122611	12	1.9208705296813
116	130399	13	2.4288602389466
116	131600	14	1.844239368971
116	156939	15	0.973
116	172802	16	0.973
116	180111	17	0.973
116	181453	18	1.9747768684252
116	190367	19	4.5996870857908
116	209882	20	5.5523865276668
116	234382	21	6.6280705119276
116	235581	22	7.8155180475495
116	243452	23	8.2800608987761
116	244374	24	3.2893913668812
116	269352	25	2.4443170866713
116	287574	26	1.7852267047207
116	294721	27	2.4377023201249
116	295620	28	1.9715432203919
116	303082	29	1.9189799062326
116	320526	30	2.2592112788199
116	343116	31	0.973
116	343741	32	0.973
116	351195	33	2.3407203981435
116	352195	34	5.7353591610406
116	373502	35	2.6997615544724
116	390032	36	6.7038847747483
116	396948	37	8.810270979834
116	397834	38	5.6991586932678
116	404614	39	1.9932524452429
116	418584	40	1.9947793540413
116	440741	41	2.2667087397725
116	441684	42	1.9081163009979
116	447900	43	2.2730351165441
116	449454	44	2.107828764204
116	467142	45	2.0428710729418
116	482930	46	1.9110269092538
116	488859	47	0.973
116	489551	48	0.973
116	495670	49	0.973
116	508238	50	2.3321173636631
116	528500	51	5.7983587067278
116	529439	52	7.243810126013
116	535884	53	7.9178167350409
116	537066	54	7.3955738867482
116	554839	55	0.973
116	568952	56	0.973
116	575278	57	0.973
116	575852	58	6.1240597089986
116	581629	59	3.8725066374675
116	592563	60	4.8745986047175
116	611074	61	7.9969927664224
116	611929	62	8.3610118505268
116	616754	63	1.9430548884193
116	617489	64	2.0490351211316
116	631608	65	2.13960334828
116	644162	66	2.1606360562828
116	648975	67	0.973
116	649681	68	0.973
116	654293	69	1.41939383808
116	664804	70	1.41939383808
116	679917	71	1.41939383808
116	680409	72	1.41939383808
116	685016	73	1.41939383808
116	685649	74	1.41939383808
116	699441	75	1.41939383808
116	709187	76	1.41939383808
116	713311	77	1.41939383808
116	713886	78	1.41939383808
116	717724	79	1.41939383808
116	727322	80	1.41939383808
116	740354	81	1.41939383808
116	741238	82	1.41939383808
116	745301	83	1.41939383808
116	745783	84	1.41939383808
116	758669	85	1.41939383808
116	768673	86	1.41939383808
116	772846	87	1.41939383808
116	773640	88	1.41939383808
116	777787	89	1.41939383808
116	787437	90	1.41939383808
116	800569	91	1.41939383808
116	801145	92	1.41939383808
116	805183	93	1.41939383808
116	805701	94	1.41939383808
116	819087	95	1.41939383808
116	829323	96	1.41939383808
115	23353	3	1.9844649614207
115	23684	4	1.7155543544819
115	48176	5	1.9200695547694
115	65146	6	1.9666060070298
115	72062	7	1.9708712204336
115	72393	8	0.75202140686317
115	79310	9	-0.025341868998948
115	97778	10	0.016066589609254
115	120995	11	0.040155397197232
115	122611	12	-0.04949584382819
115	130399	13	0.092179867033845
115	131600	14	-0.071899822575505
115	156939	15	-4.2113992060087
115	172802	16	-4.2401944124046
115	180111	17	-2.3369070426538
115	181453	18	0.61295970074832
115	190367	19	2.0413287972566
115	209882	20	1.9710027130297
115	234382	21	1.9697579007945
115	235581	22	1.9943176395562
115	243452	23	1.8221377369436
115	244374	24	0.34213729212463
115	269352	25	0.096931280235294
115	287574	26	-0.08809512796579
115	294721	27	0.094804536472074
115	295620	28	-0.036497404281981
115	303082	29	-0.050102372148539
115	320526	30	0.045517699245828
115	343116	31	-3.085344828564
115	343741	32	-4.4805611032721
115	351195	33	0.46181629061466
115	352195	34	1.8298086700612
115	373502	35	0.44050143337679
115	390032	36	1.7658706314093
115	396948	37	2.0802896333975
115	397834	38	1.0213316843947
115	404614	39	-0.030286727729253
115	418584	40	-0.029025793706532
115	440741	41	0.046932191709056
115	441684	42	-0.053560796806122
115	447900	43	0.048888528812677
115	449454	44	0.0018581457063558
115	467142	45	-0.016135106335861
115	482930	46	-0.052256242744624
115	488859	47	-2.3235119995579
115	489551	48	-4.5
115	495670	49	-1.0394341574115
115	508238	50	0.48914934964527
115	528500	51	1.9138855160703
115	529439	52	2.0433209772222
115	535884	53	1.905243424587
115	537066	54	1.513966048082
115	554839	55	-1.7681936954279
115	568952	56	-4.5
115	575278	57	-1.66
115	575852	58	2.1483275274932
115	581629	59	0.94604597764605
115	592563	60	1.1894668845739
115	611074	61	1.961096951419
115	611929	62	1.7755730131231
115	616754	63	-0.044494055984542
115	617489	64	-0.01391634457279
115	631608	65	0.011527406792156
115	644162	66	0.016977447189856
115	648975	67	-4.5
115	649681	68	-4.0919152305699
115	654293	69	0
115	664804	70	0
115	679917	71	0
115	680409	72	0
115	685016	73	0
115	685649	74	0
115	699441	75	0
115	709187	76	0
115	713311	77	0
115	713886	78	0
115	717724	79	0
115	727322	80	0
115	740354	81	0
115	741238	82	0
115	745301	83	0
115	745783	84	0
115	758669	85	0
115	768673	86	0
115	772846	87	0
115	773640	88	0
115	777787	89	0
115	787437	90	0
115	800569	91	0
115	801145	92	0
115	805183	93	0
115	805701	94	0
115	819087	95	0
115	829323	96	0
74	16435	2	4.237806794977
74	23353	3	6.2222717563977
74	23684	4	7.9378261108796
74	48176	5	9.857895665649
74	65146	6	11.824501672679
74	72062	7	13.795372893112
74	72393	8	14.547394299976
74	79310	9	14.522052430977
74	97778	10	14.538119020586
74	120995	11	14.578274417783
74	122611	12	14.528778573955
74	130399	13	14.620958440989
74	131600	14	14.549058618413
74	156939	15	10.337659412405
74	172802	16	6.097465
74	180111	17	3.7605579573462
74	181453	18	4.3735176580946
74	190367	19	6.4148464553511
74	209882	20	8.3858491683809
74	234382	21	10.355607069175
74	235581	22	12.349924708732
74	243452	23	14.172062445675
74	244374	24	14.5141997378
74	269352	25	14.611131018035
74	287574	26	14.523035890069
[...]
93	294721	27	14.088144893298
93	295620	28	14.087300216936
93	303082	29	14.127963310646
93	320526	30	14.050963895473
93	343116	31	11.790517100187
93	343741	32	7.3244346157434
93	351195	33	7.0844346157434
93	352195	34	8.9144220700367
93	373502	35	10.739954507665
93	390032	36	12.702534795985
93	396948	37	14.11938440942
93	397834	38	14.10291296183
93	404614	39	14.165046911941
93	418584	40	14.166717634751
93	440741	41	14.067096442227
93	441684	42	14.068170190957
93	447900	43	14.055397285966
93	449454	44	14.117376395122
93	467142	45	14.109949288865
93	482930	46	14.112490207942
93	488859	47	9.8215984127216
93	489551	48	6.0315984127216
93	495670	49	8.1685102892957
93	508238	50	8.740251823077
93	528500	51	8.6882681094133
93	529439	52	9.1812841022643
93	535884	53	11.105317551086
93	537066	54	13.093819757688
93	554839	55	14.135831012869
93	568952	56	14.108317471643
93	575278	57	14.153822838774
93	575852	58	14.087922747576
93	581629	59	14.071273701743
93	592563	60	14.117036387628
93	611074	61	11.084818526807
93	611929	62	6.6057115251981
93	616754	63	8.009139683716
93	617489	64	10.124765297516
93	631608	65	12.066269462231
93	644162	66	13.861247205705
93	648975	67	12.368554311724
93	649681	68	7.9783429758801
93	654293	69	3.4812646593215
93	664804	70	0
93	679917	71	0
93	680409	72	0
93	685016	73	0
93	685649	74	1.82
93	699441	75	3.7841260785742
93	709187	76	5.6449526616807
93	713311	77	7.3752968420779
93	713886	78	5.7468804234597
93	717724	79	3.3024818456504
93	727322	80	1.6854694405879
93	740354	81	0.73074148902717
93	741238	82	0.27380494800285
93	745301	83	0.10255687939231
93	745783	84	0.035838238967962
93	758669	85	0.012603267275156
93	768673	86	0.0047118385541885
93	772846	87	0.001642163370901
93	773640	88	0.00059116319754952
93	777787	89	0.00020506260695313
93	787437	90	7.3817153898785e-005
93	800569	91	2.6343409853187e-005
93	801145	92	0
93	805183	93	0
93	805701	94	0
93	819087	95	0
93	829323	96	0
93	833744	97	0
93	834243	98	0
93	837944	99	0
93	845914	100	0
93	858183	101	0
93	858741	102	0
93	862586	103	0
93	863026	104	0
93	872282	105	0
93	880151	106	0
93	883252	107	0
93	883763	108	0
93	886871	109	0
93	893519	110	0
93	902752	111	0
93	903242	112	0
93	906287	113	0
93	906917	114	0
93	915206	115	0
93	920814	116	0
93	923302	117	0
93	923587	118	0
93	925708	119	0
93	930072	120	0
93	937173	121	0
93	937344	122	0
93	939491	123	0
93	939863	124	1.0745542010468
93	946119	125	2.8837256589087
93	950703	126	1.0280668667853
93	952418	127	3.0126749619375
93	952656	128	4.7046643386439
93	954453	129	6.6897870033125
93	957574	130	8.757558638084
93	963708	131	10.799962588596
93	964039	132	10.783772066703
93	965757	133	8.6408467318918
93	966088	134	6.5598065422585
93	970544	135	4.847542014797
93	974932	136	3.8486478018849
93	976909	137	4.2254038096476
93	977240	138	5.5019103638673
93	979032	139	6.8567278466121
93	982293	140	6.120908030647
93	988249	141	8.4060858315119
93	988596	142	10.369113348299
93	990016	143	12.276879422966
93	990223	144	14.11658903936
93	993590	145	14.144742199863
93	997043	146	14.087907470992
93	998460	147	9.5879074709916
93	998748	148	6
93	1000143	149	6
93	1002252	150	6
93	1006533	151	6
93	1006823	152	6
93	1008102	153	6
93	1008233	154	6
93	1011287	155	6
93	1014643	156	6
93	1015994	157	6
93	1016125	158	6
93	1017288	159	6
93	1019092	160	6
93	1022796	161	6
93	1023204	162	6
93	1024361	163	6
93	1024627	164	6
93	1027558	165	6
93	1030115	166	6
93	1031140	167	6
93	1031457	168	6
93	1032553	169	6
93	1034458	170	6
93	1037366	171	6
93	1037723	172	6
93	1038730	173	6
93	1039076	174	6
93	1041148	175	6
93	1043033	176	6
93	1043896	177	6
93	1043997	178	6
93	1044848	179	6
93	1046048	180	6
93	1048114	181	6
93	1048301	182	6
93	1048919	183	6
93	1049010	184	6
93	1050917	185	6
93	1052564	186	6
93	1053122	187	6
93	1053203	188	6
93	1053709	189	6
93	1054908	190	6
93	1056111	191	6
93	1056363	192	6
93	1056767	193	6
93	1056828	194	6
93	1058028	195	6
93	1058658	196	6
93	1058973	197	6
93	1059106	198	6
93	1059421	199	6
93	1060196	200	6
93	1060981	201	6
93	1061081	202	6
93	1061466	203	6
93	1061527	204	6
93	1062565	205	5.4409795884361
93	1063192	206	6
93	1063587	207	6
93	1063727	208	6
93	1064042	209	6
93	1064779	210	6
93	1065661	211	6
93	1065722	212	6
93	1066036	213	6
93	1066097	214	6
93	1067095	215	6
93	1067602	216	6
93	1067954	217	6
93	1068015	218	6
93	1068328	219	6
93	1069016	220	6
93	1069737	221	6
93	1069879	222	6
93	1070192	223	6
93	1070253	224	6
93	1071160	225	6
93	1071605	226	6
93	1071840	227	6
93	1071891	228	6
93	1072162	229	6
93	1072531	230	6
93	1073082	231	6
93	1073133	232	6
93	1073428	233	6
93	1073479	234	6
93	1074032	235	6
93	1074338	236	6
93	1074540	237	6
93	1074581	238	6
93	1074783	239	6
93	1075012	240	6
93	1075424	241	6
93	1075465	242	6
93	1075636	243	6
93	1075677	244	6
93	1076088	245	6
93	1076407	246	6
93	1076578	247	6
93	1076619	248	6
93	1076842	249	6
93	1077071	250	6
93	1077515	251	6
93	1077587	252	6
93	1077698	253	6
93	1077729	254	6
93	1077916	255	6
93	1078144	256	6
93	1078255	257	6
93	1078286	258	6
93	1078397	259	6
93	1078504	260	6
93	1078743	261	6
93	1078764	262	6
93	1078827	263	6
93	1078848	264	6
93	1078911	265	6
93	1079108	266	6
93	1079172	267	6
93	1079193	268	6
93	1079257	269	6
93	1079268	270	6
93	1079380	271	6
93	1079391	272	6
93	1079418	273	6
55	3	1	1003.2444298519
55	16435	2	1000.0897528888
55	23353	3	994.96046066648
55	23684	4	987.86380107348
55	48176	5	978.93448671931
55	65146	6	967.95441596972
55	72062	7	954.90268178622
55	72393	8	940.81273210111
55	79310	9	926.6953131676
55	97778	10	912.6163915106
55	120995	11	898.50117249705
55	122611	12	884.39432750058
55	130399	13	870.31207128563
55	131600	14	856.23698539129
55	156939	15	844.84405814307
55	172802	16	837.64044794653
55	180111	17	833.98997785128
55	181453	18	836.33337448079
55	190367	19	841.44250315051
55	209882	20	848.55045385254
55	234382	21	857.56399347139
55	235581	22	868.44935194314
55	243452	23	881.29037446969
55	244374	24	895.39482717302
55	269352	25	909.5033637852
55	287574	26	923.60979073422
55	294721	27	937.72446416508
55	295620	28	951.8433339413
55	303082	29	965.95440018409
55	320526	30	980.05560061955
55	343116	31	993.46133821101
55	343741	32	1002.7971492297
55	351195	33	1009.1375838455
55	352195	34	1017.2138911533
55	373502	35	1027.0966812673
55	390032	36	1038.9263452792
55	396948	37	1052.6091058516
55	397834	38	1066.7296561186
55	404614	39	1080.8667709512
55	418584	40	1094.990439845
55	440741	41	1109.096108404
55	441684	42	1123.194854981
55	447900	43	1137.2998572188
55	449454	44	1151.3960345104
55	467142	45	1165.5129819589
55	482930	46	1179.6127097386
55	488859	47	1191.4493732855
55	489551	48	1198.8669716982
55	495670	49	1206.0844995039
55	508238	50	1212.9328075017
55	528500	51	1213.2477921598
55	529439	52	1208.1343416788
55	535884	53	1200.9301194032
55	537066	54	1192.3350273323
55	554839	55	1182.4785187913
55	568952	56	1172.5015478542
55	575278	57	1162.5244867426
55	575852	58	1154.8197822092
55	581629	59	1144.8435940943
55	592563	60	1135.0588176141
55	611074	61	1130.7643193228
55	611929	62	1129.9851024242
55	616754	63	1129.8
55	617489	64	1129.8
55	631608	65	1129.8
55	644162	66	1129.8
55	648975	67	1129.8
55	649681	68	1129.8
55	654293	69	1129.8
55	664804	70	1129.8
55	679917	71	1129.8
55	680409	72	1129.8
55	685016	73	1129.8
55	685649	74	1129.8
55	699441	75	1129.8
55	709187	76	1129.8
55	713311	77	1129.8
55	713886	78	1129.8
55	717724	79	1129.8
55	727322	80	1129.8
55	740354	81	1129.8
55	741238	82	1129.8
55	745301	83	1129.8
55	745783	84	1129.8
55	758669	85	1129.8
55	768673	86	1129.8
55	772846	87	1129.8
55	773640	88	1129.8
55	777787	89	1129.8
55	787437	90	1129.8
55	800569	91	1129.8
55	801145	92	1129.8
55	805183	93	1129.8
55	805701	94	1129.8
55	819087	95	1129.8
55	829323	96	1129.8
55	833744	97	1129.8
55	834243	98	1129.8
55	837944	99	1129.8
55	845914	100	1129.8
55	858183	101	1129.8
55	858741	102	1129.8
55	862586	103	1129.8
55	863026	104	1129.8
55	872282	105	1129.8
55	880151	106	1129.8
55	883252	107	1129.8
55	883763	108	1129.8
55	886871	109	1129.8
55	893519	110	1129.8
55	902752	111	1129.8
55	903242	112	1129.8
55	906287	113	1129.8
55	906917	114	1129.8
55	915206	115	1129.8
55	920814	116	1129.8
55	923302	117	1129.8
55	923587	118	1129.8
55	925708	119	1129.8
55	930072	120	1129.8
55	937173	121	1129.8
55	937344	122	1129.8
55	939491	123	1129.8
55	939863	124	1129.8
55	946119	125	1129.8
55	950703	126	1129.8
55	952418	127	1129.8
55	952656	128	1129.8
55	954453	129	1129.8
55	957574	130	1129.8
55	963708	131	1129.8
55	964039	132	1129.8
55	965757	133	1129.8
55	966088	134	1129.8
55	970544	135	1129.8
55	974932	136	1130.2105455767
55	976909	137	1131.3151819989
55	977240	138	1133.5239302349
55	979032	139	1137.2404676485
55	982293	140	1141.4550373009
55	988249	141	1146.6277711813
55	988596	142	1153.3280857998
55	990016	143	1161.4190633238
55	990223	144	1168.6139299736
55	993590	145	1178.5778050579
55	997043	146	1188.5532749392
55	998460	147	1196.7647970607
55	998748	148	1201.8923796323
55	1000143	149	1206.1349978441
55	1002252	150	1210.377616056
55	1006533	151	1214.4828609566
55	1006823	152	1218.4118377667
55	1008102	153	1222.8387857414
55	1008233	154	1228.1160389783
55	1011287	155	1233.4628340134
55	1014643	156	1238.8293076754
55	1015994	157	1244.1957813373
55	1016125	158	1249.5622549992
55	1017288	159	1254.9287286611
55	1019092	160	1260.295202323
55	1022796	161	1265.6616759849
55	1023204	162	1271.0281496468
55	1024361	163	1276.3946233087
55	1024627	164	1281.7610969707
55	1027558	165	1287.1275706326
55	1030115	166	1292.4940442945
55	1031140	167	1297.8605179564
55	1031457	168	1303.2269916183
55	1032553	169	1308.5934652802
55	1034458	170	1313.9599389421
55	1037366	171	1319.326412604
55	1037723	172	1324.692886266
55	1038730	173	1330.0593599279
55	1039076	174	1335.4258335898
55	1041148	175	1340.7923072517
55	1043033	176	1346.1587809136
55	1043896	177	1351.5252545755
55	1043997	178	1356.8917282374
55	1044848	179	1362.2582018993
55	1046048	180	1367.6246755612
55	1048114	181	1372.9911492232
55	1048301	182	1378.3576228851
55	1048919	183	1383.724096547
55	1049010	184	1389.0905702089
55	1050917	185	1394.4570438708
55	1052564	186	1399.8235175327
55	1053122	187	1405.1899911946
55	1053203	188	1410.5564648565
55	1053709	189	1415.9229385185
55	1054908	190	1420.9139116918
55	1056111	191	1423.9526792504
55	1056363	192	1425.4265507368
55	1056767	193	1426.219059566
55	1056828	194	1426.4838046455
55	1058028	195	1426.6
55	1058658	196	1426.6
55	1058973	197	1426.6
55	1059106	198	1426.6
55	1059421	199	1426.6
55	1060196	200	1426.6
55	1060981	201	1426.6
55	1061081	202	1426.6
55	1061466	203	1429.8
55	1061527	204	1429.8
55	1062565	205	1429.8
55	1063192	206	1429.8
55	1063587	207	1429.8
55	1063727	208	1429.8
55	1064042	209	1429.8
55	1064779	210	1429.8
55	1065661	211	1429.8
55	1065722	212	1429.8
55	1066036	213	1429.8
55	1066097	214	1429.8
55	1067095	215	1429.8
55	1067602	216	1429.8
55	1067954	217	1429.8
55	1068015	218	1429.8
55	1068328	219	1429.8
55	1069016	220	1429.8
55	1069737	221	1429.9529245161
55	1069879	222	1430.2544806702
55	1070192	223	1431.1453361222
55	1070253	224	1432.8590597368
55	1071160	225	1433.7770968314
55	1071605	226	1438.0196938518
55	1071840	227	1442.2622908722
55	1071891	228	1446.5048878926
55	1072162	229	1450.7474849131
55	1072531	230	1454.9900819335
55	1073082	231	1459.2326789539
55	1073133	232	1463.4752759743
55	1073428	233	1467.7178729947
55	1073479	234	1471.9604700151
55	1074032	235	1476.2030670355
55	1074338	236	1480.445664056
55	1074540	237	1484.6882610764
55	1074581	238	1488.9308580968
55	1074783	239	1493.1734551172
55	1075012	240	1497.4160521376
55	1075424	241	1501.658649158
55	1075465	242	1505.9012461785
55	1075636	243	1510.0687855136
55	1075677	244	1513.2141855516
55	1076088	245	1513.7703217331
55	1076407	246	1510.7998775149
55	1076578	247	1505.5011183547
55	1076619	248	1499.5901282775
55	1076842	249	1493.5901282775
55	1077071	250	1487.5901282775
55	1077515	251	1481.5901282775
55	1077587	252	1475.5901282775
55	1077698	253	1469.5901282775
55	1077729	254	1463.5901282775
55	1077916	255	1457.5901282775
55	1078144	256	1451.5901282775
55	1078255	257	1445.5901282775
55	1078286	258	1439.5901282775
55	1078397	259	1433.5901282775
55	1078504	260	1427.5901282775
55	1078743	261	1421.5901282775
55	1078764	262	1415.5901282775
55	1078827	263	1409.5901282775
55	1078848	264	1403.5901282775
55	1078911	265	1397.5901282775
55	1079108	266	1391.5901282775
55	1079172	267	1385.5901282775
55	1079193	268	1379.5901282775
55	1079257	269	1373.5901282775
55	1079268	270	1367.5901282775
55	1079380	271	1361.5901282775
55	1079391	272	1355.5901282775
55	1079418	273	1349.5901282775
54	3	1	629.8
54	16435	2	629.8
54	23353	3	629.8
54	23684	4	626.6
54	48176	5	626.6
54	65146	6	626.6
54	72062	7	626.6
54	72393	8	626.6
54	79310	9	626.6
54	97778	10	626.6
54	120995	11	626.6
54	122611	12	626.6
54	130399	13	626.6
54	131600	14	626.6
54	156939	15	626.6
54	172802	16	626.6
54	180111	17	625.37995570256
54	181453	18	623.4
54	190367	19	623.4
54	209882	20	623.4
54	234382	21	623.4
54	235581	22	623.4
54	243452	23	623.4
54	244374	24	623.4
54	269352	25	623.4
54	287574	26	623.4
54	294721	27	623.4
54	295620	28	623.4
54	303082	29	623.4
54	320526	30	623.4
54	343116	31	623.4
54	343741	32	623.4
54	351195	33	623.4
54	352195	34	623.4
54	373502	35	623.4
54	390032	36	623.4
54	396948	37	623.4
54	397834	38	623.4
54	404614	39	623.4
54	418584	40	623.4
54	440741	41	623.4
54	441684	42	623.4
54	447900	43	623.4
54	449454	44	623.4
54	467142	45	623.4
54	482930	46	623.4
54	488859	47	623.4
54	489551	48	623.4
54	495670	49	624.25676811402
54	508238	50	628.86787086272
54	528500	51	637.05060073038
54	529439	52	644.13565832115
54	535884	53	651.3398805968
54	537066	54	659.93497266774
54	554839	55	669.79148120872
54	568952	56	679.76845214579
54	575278	57	689.7455132574
54	575852	58	701.97021779085
54	581629	59	711.94640590565
54	592563	60	722.06879839748
54	611074	61	734.07140879642
54	611929	62	742.65243939486
54	616754	63	749.85621974958
54	617489	64	759.04538177146
54	631608	65	770.21645459202
54	644162	66	783.23507713341
54	648975	67	796.91170491127
54	649681	68	806.89822931319
54	654293	69	812.40303313079
54	664804	70	813.59899990097
54	679917	71	813.59899990097
54	680409	72	813.59899990097
54	685016	73	813.59899990097
54	685649	74	814.32699990097
54	699441	75	817.23092850622
54	709187	76	822.07622577338
54	713311	77	828.6777660353
54	713886	78	835.5305822197
54	717724	79	839.86549077412
54	727322	80	842.27058747044
54	740354	81	843.38938542273
54	741238	82	843.84276153933
54	745301	83	844.00885549774
54	745783	84	844.06891346732
54	758669	85	844.09020971655
54	768673	86	844.09793780604
54	772846	87	844.10068099331
54	773640	88	844.10165401804
54	777787	89	844.1020049067
54	787437	90	844.10212878717
54	800569	91	844.10217298021
54	801145	92	844.10218804781
54	805183	93	844.10218804781
54	805701	94	844.10218804781
54	819087	95	844.10218804781
54	829323	96	844.10218804781
54	833744	97	844.10218804781
54	834243	98	844.10218804781
54	837944	99	844.10218804781
54	845914	100	844.10218804781
54	858183	101	844.10218804781
54	858741	102	844.10218804781
54	862586	103	844.10218804781
54	863026	104	844.10218804781
54	872282	105	844.10218804781
54	880151	106	844.10218804781
54	883252	107	844.10218804781
54	883763	108	844.10218804781
54	886871	109	844.10218804781
54	893519	110	844.10218804781
54	902752	111	844.10218804781
54	903242	112	844.10218804781
54	906287	113	844.10218804781
54	906917	114	844.10218804781
54	915206	115	844.10218804781
54	920814	116	844.10218804781
54	923302	117	844.10218804781
54	923587	118	844.10218804781
54	925708	119	844.10218804781
54	930072	120	844.10218804781
54	937173	121	844.10218804781
54	937344	122	844.10218804781
54	939491	123	844.10218804781
54	939863	124	844.51941135637
54	946119	125	846.57604946416
54	950703	126	848.80826873043
54	952418	127	850.94807242519
54	952656	128	854.97290868831
54	954453	129	860.73230099394
54	957574	130	868.54004583415
54	963708	131	878.44532381138
54	964039	132	889.81312549182
54	965757	133	899.38047345297
54	966088	134	906.86436260967
54	970544	135	912.5196656239
54	974932	136	916.68922082347
54	976909	137	920.39664246619
54	977240	138	924.6811645588
54	979032	139	929.70844507811
54	982293	140	934.44706237672
54	988249	141	939.83777118127
54	988596	142	946.53808579984
54	990016	143	954.62906332379
54	990223	144	966.34392997361
54	993590	145	976.30780505789
54	997043	146	986.28327493923
54	998460	147	994.49479706072
54	998748	148	999.62237963229
54	1000143	149	1003.8649978441
54	1002252	150	1008.107616056
54	1006533	151	1012.6501814074
54	1006823	152	1017.3441431002
54	1008102	153	1021.5604684162
54	1008233	154	1024.6652118721
54	1011287	155	1027.4414170067
54	1014643	156	1030.1246538377
54	1015994	157	1032.8078906686
54	1016125	158	1035.4911274996
54	1017288	159	1038.1743643305
54	1019092	160	1040.8576011615
54	1022796	161	1043.5408379925
54	1023204	162	1046.2240748234
54	1024361	163	1048.9073116544
54	1024627	164	1051.5905484853
54	1027558	165	1054.2737853163
54	1030115	166	1056.9570221472
54	1031140	167	1059.6402589782
54	1031457	168	1062.3234958092
54	1032553	169	1065.0067326401
54	1034458	170	1067.6899694711
54	1037366	171	1070.373206302
54	1037723	172	1073.056443133
54	1038730	173	1075.7396799639
54	1039076	174	1078.4229167949
54	1041148	175	1081.1061536258
54	1043033	176	1083.7893904568
54	1043896	177	1086.4726272878
54	1043997	178	1089.1558641187
54	1044848	179	1091.8391009497
54	1046048	180	1094.5223377806
54	1048114	181	1097.2055746116
54	1048301	182	1099.8888114425
54	1048919	183	1102.5720482735
54	1049010	184	1105.2552851044
54	1050917	185	1107.9385219354
54	1052564	186	1110.6217587664
54	1053122	187	1113.3049955973
54	1053203	188	1115.9882324283
54	1053709	189	1118.6714692592
54	1054908	190	1121.908267632
54	1056111	191	1126.9470025665
54	1056363	192	1132.7247035511
54	1056767	193	1138.659152352
54	1056828	194	1144.650448608
54	1058028	195	1150.6466285762
54	1058658	196	1156.6466285762
54	1058973	197	1162.6466285762
54	1059106	198	1168.6466285762
54	1059421	199	1174.6466285762
54	1060196	200	1180.6466285762
54	1060981	201	1186.6466285762
54	1061081	202	1192.6466285762
54	1061466	203	1198.6466285762
54	1061527	204	1204.6466285762
54	1062565	205	1210.5798244939
54	1063192	206	1216.5460204116
54	1063587	207	1222.5460204116
54	1063727	208	1228.5460204116
54	1064042	209	1234.5460204116
54	1064779	210	1240.5460204116
54	1065661	211	1246.5460204116
54	1065722	212	1252.5460204116
54	1066036	213	1258.5460204116
54	1066097	214	1264.5460204116
54	1067095	215	1270.5460204116
54	1067602	216	1276.5460204116
54	1067954	217	1282.5460204116
54	1068015	218	1288.5460204116
54	1068328	219	1294.5460204116
54	1069016	220	1300.5460204116
54	1069737	221	1306.5431129023
54	1069879	222	1312.532701607
54	1070192	223	1318.4664352422
54	1070253	224	1324.2046656508
54	1071160	225	1331.5070968314
54	1071605	226	1335.7496938518
54	1071840	227	1339.9922908722
54	1071891	228	1344.2348878926
54	1072162	229	1348.4774849131
54	1072531	230	1352.7200819335
54	1073082	231	1356.9626789539
54	1073133	232	1361.2052759743
54	1073428	233	1365.4478729947
54	1073479	234	1369.6904700151
54	1074032	235	1373.9330670355
54	1074338	236	1378.175664056
54	1074540	237	1382.4182610764
54	1074581	238	1386.6608580968
54	1074783	239	1390.9034551172
54	1075012	240	1395.1460521376
54	1075424	241	1399.388649158
54	1075465	242	1403.6312461785
54	1075636	243	1407.7987855136
54	1075677	244	1412.8926881183
54	1076088	245	1418.6506900906
54	1076407	246	1423.572849021
54	1076578	247	1425.8917896035
54	1076619	248	1426.6
54	1076842	249	1426.6
54	1077071	250	1426.6
54	1077515	251	1426.6
54	1077587	252	1426.6
54	1077698	253	1426.6
54	1077729	254	1426.6
54	1077916	255	1426.6
54	1078144	256	1426.6
54	1078255	257	1426.6
54	1078286	258	1426.6
54	1078397	259	1426.6
54	1078504	260	1426.6
54	1078743	261	1426.6
54	1078764	262	1426.6
54	1078827	263	1426.6
54	1078848	264	1426.6
54	1078911	265	1426.6
54	1079108	266	1426.6
54	1079172	267	1426.6
54	1079193	268	1426.6
54	1079257	269	1426.6
54	1079268	270	1426.6
54	1079380	271	1426.6
54	1079391	272	1426.6
54	1079418	273	1429.8

