version 2
run General-0-20250610-03:49:33-11064
attr configname General
attr datetime 20250610-03:49:33
attr experiment General
attr inifile omnetpp.ini
attr iterationvars ""
attr iterationvarsf ""
attr measurement ""
attr network RSUExampleScenario
attr processid 11064
attr repetition 0
attr replication #0
attr resultdir results
attr runnumber 0
attr seedset 0
param *.playgroundSizeX 5000m
param *.playgroundSizeY 5000m
param *.playgroundSizeZ 50m
param *.annotations.draw true
param *.obstacles.obstacles "xmldoc(\"config.xml\", \"//AnalogueModel[@type='SimpleObstacleShadowing']/obstacles\")"
param *.manager.updateInterval 1s
param *.manager.host "\"localhost\""
param *.manager.port 9999
param *.manager.autoShutdown true
param *.manager.launchConfig "xmldoc(\"erlangen.launchd.xml\")"
param *.manager.trafficLightModuleType "\"org.car2x.veins.nodes.TrafficLight\""
param *.tls[*].mobility.x 0
param *.tls[*].mobility.y 0
param *.tls[*].mobility.z 3
param *.tls[*].applType "\"org.car2x.veins.modules.application.traci.TraCIDemoTrafficLightApp\""
param *.tls[*].logicType "\"org.car2x.veins.modules.world.traci.trafficLight.logics.TraCITrafficLightSimpleLogic\""
param *.rsu[0].mobility.x 1000
param *.rsu[0].mobility.y 1000
param *.rsu[0].mobility.z 3
param *.rsu[*].applType "\"RSUControlApp\""
param *.rsu[*].appl.headerLength "80 bit"
param *.rsu[*].appl.sendBeacons false
param *.rsu[*].appl.dataOnSch false
param *.rsu[*].appl.beaconInterval 1s
param *.rsu[*].appl.beaconUserPriority 7
param *.rsu[*].appl.dataUserPriority 5
param *.rsu[*].appl.netFile "\"./erlangen.net.xml\""
param *.rsu[*].appl.routeFile "\"./erlangen.rou.xml\""
param *.rsu[*].nic.phy80211p.antennaOffsetZ "0 m"
param *.connectionManager.sendDirect true
param *.connectionManager.maxInterfDist 4000m
param *.connectionManager.drawMaxIntfDist false
param *.**.nic.mac1609_4.useServiceChannel false
param *.**.nic.mac1609_4.txPower 50mW
param *.**.nic.mac1609_4.bitrate 6Mbps
param *.**.nic.phy80211p.minPowerLevel -110dBm
param *.**.nic.phy80211p.useNoiseFloor true
param *.**.nic.phy80211p.noiseFloor -98dBm
param *.**.nic.phy80211p.decider "xmldoc(\"config.xml\")"
param *.**.nic.phy80211p.analogueModels "xmldoc(\"config.xml\")"
param *.**.nic.phy80211p.usePropagationDelay true
param *.**.nic.phy80211p.antenna "xmldoc(\"antenna.xml\", \"/root/Antenna[@id='monopole']\")"
param *.node[*].nic.phy80211p.antennaOffsetY "0 m"
param *.node[*].nic.phy80211p.antennaOffsetZ "1.895 m"
param *.node[*].applType "\"VehicleControlApp\""
param *.node[*].appl.headerLength "80 bit"
param *.node[*].appl.sendBeacons true
param *.node[*].appl.dataOnSch false
param *.node[*].appl.beaconInterval 1s
param *.node[*].veinsmobility.x 0
param *.node[*].veinsmobility.y 0
param *.node[*].veinsmobility.z 0
param *.node[*].veinsmobility.setHostSpeed false
param *.node[*0].veinsmobility.accidentCount 1
param *.node[*0].veinsmobility.accidentStart 73s
param *.node[*0].veinsmobility.accidentDuration 50s

vector 0 RSUExampleScenario.node[0].veinsmobility posx ETV
vector 1 RSUExampleScenario.node[0].veinsmobility posy ETV
vector 2 RSUExampleScenario.node[1].veinsmobility posx ETV
vector 3 RSUExampleScenario.node[1].veinsmobility posy ETV
vector 4 RSUExampleScenario.node[2].veinsmobility posx ETV
vector 5 RSUExampleScenario.node[2].veinsmobility posy ETV
vector 6 RSUExampleScenario.node[3].veinsmobility posx ETV
vector 7 RSUExampleScenario.node[3].veinsmobility posy ETV
vector 8 RSUExampleScenario.node[4].veinsmobility posx ETV
vector 9 RSUExampleScenario.node[4].veinsmobility posy ETV
vector 10 RSUExampleScenario.node[5].veinsmobility posx ETV
vector 11 RSUExampleScenario.node[5].veinsmobility posy ETV
vector 12 RSUExampleScenario.node[6].veinsmobility posx ETV
vector 13 RSUExampleScenario.node[6].veinsmobility posy ETV
vector 14 RSUExampleScenario.node[7].veinsmobility posx ETV
vector 15 RSUExampleScenario.node[7].veinsmobility posy ETV
vector 16 RSUExampleScenario.node[8].veinsmobility posx ETV
vector 17 RSUExampleScenario.node[8].veinsmobility posy ETV
vector 18 RSUExampleScenario.node[9].veinsmobility posx ETV
vector 19 RSUExampleScenario.node[9].veinsmobility posy ETV
vector 20 RSUExampleScenario.node[10].veinsmobility posx ETV
vector 21 RSUExampleScenario.node[10].veinsmobility posy ETV
vector 22 RSUExampleScenario.node[11].veinsmobility posx ETV
vector 23 RSUExampleScenario.node[11].veinsmobility posy ETV
vector 24 RSUExampleScenario.node[12].veinsmobility posx ETV
vector 25 RSUExampleScenario.node[12].veinsmobility posy ETV
vector 26 RSUExampleScenario.node[13].veinsmobility posx ETV
vector 27 RSUExampleScenario.node[13].veinsmobility posy ETV
vector 28 RSUExampleScenario.node[14].veinsmobility posx ETV
vector 29 RSUExampleScenario.node[14].veinsmobility posy ETV
vector 30 RSUExampleScenario.node[15].veinsmobility posx ETV
vector 31 RSUExampleScenario.node[15].veinsmobility posy ETV
vector 32 RSUExampleScenario.node[16].veinsmobility posx ETV
vector 33 RSUExampleScenario.node[16].veinsmobility posy ETV
vector 34 RSUExampleScenario.node[17].veinsmobility posx ETV
vector 35 RSUExampleScenario.node[17].veinsmobility posy ETV
vector 36 RSUExampleScenario.node[18].veinsmobility posx ETV
vector 37 RSUExampleScenario.node[18].veinsmobility posy ETV
vector 38 RSUExampleScenario.node[19].veinsmobility posx ETV
vector 39 RSUExampleScenario.node[19].veinsmobility posy ETV
vector 40 RSUExampleScenario.node[20].veinsmobility posx ETV
vector 41 RSUExampleScenario.node[20].veinsmobility posy ETV
vector 42 RSUExampleScenario.node[21].veinsmobility posx ETV
vector 43 RSUExampleScenario.node[21].veinsmobility posy ETV
vector 44 RSUExampleScenario.node[22].veinsmobility posx ETV
vector 45 RSUExampleScenario.node[22].veinsmobility posy ETV
vector 46 RSUExampleScenario.node[23].veinsmobility posx ETV
vector 47 RSUExampleScenario.node[23].veinsmobility posy ETV
vector 48 RSUExampleScenario.node[24].veinsmobility posx ETV
vector 49 RSUExampleScenario.node[24].veinsmobility posy ETV
vector 50 RSUExampleScenario.node[25].veinsmobility posx ETV
vector 51 RSUExampleScenario.node[25].veinsmobility posy ETV
vector 52 RSUExampleScenario.node[26].veinsmobility posx ETV
vector 53 RSUExampleScenario.node[26].veinsmobility posy ETV
vector 54 RSUExampleScenario.node[27].veinsmobility posx ETV
vector 55 RSUExampleScenario.node[27].veinsmobility posy ETV
vector 56 RSUExampleScenario.node[28].veinsmobility posx ETV
vector 57 RSUExampleScenario.node[28].veinsmobility posy ETV
vector 58 RSUExampleScenario.node[29].veinsmobility posx ETV
vector 59 RSUExampleScenario.node[29].veinsmobility posy ETV
vector 60 RSUExampleScenario.node[30].veinsmobility posx ETV
vector 61 RSUExampleScenario.node[30].veinsmobility posy ETV
vector 62 RSUExampleScenario.node[31].veinsmobility posx ETV
vector 63 RSUExampleScenario.node[31].veinsmobility posy ETV
vector 64 RSUExampleScenario.node[0].veinsmobility speed ETV
vector 65 RSUExampleScenario.node[1].veinsmobility speed ETV
vector 66 RSUExampleScenario.node[2].veinsmobility speed ETV
vector 67 RSUExampleScenario.node[3].veinsmobility speed ETV
vector 68 RSUExampleScenario.node[4].veinsmobility speed ETV
vector 69 RSUExampleScenario.node[5].veinsmobility speed ETV
vector 70 RSUExampleScenario.node[6].veinsmobility speed ETV
vector 71 RSUExampleScenario.node[7].veinsmobility speed ETV
vector 72 RSUExampleScenario.node[8].veinsmobility speed ETV
vector 73 RSUExampleScenario.node[9].veinsmobility speed ETV
vector 74 RSUExampleScenario.node[10].veinsmobility speed ETV
vector 75 RSUExampleScenario.node[11].veinsmobility speed ETV
vector 76 RSUExampleScenario.node[12].veinsmobility speed ETV
vector 77 RSUExampleScenario.node[13].veinsmobility speed ETV
vector 78 RSUExampleScenario.node[14].veinsmobility speed ETV
vector 79 RSUExampleScenario.node[15].veinsmobility speed ETV
vector 80 RSUExampleScenario.node[16].veinsmobility speed ETV
vector 81 RSUExampleScenario.node[17].veinsmobility speed ETV
vector 82 RSUExampleScenario.node[18].veinsmobility speed ETV
vector 83 RSUExampleScenario.node[19].veinsmobility speed ETV
vector 84 RSUExampleScenario.node[20].veinsmobility speed ETV
vector 85 RSUExampleScenario.node[21].veinsmobility speed ETV
vector 86 RSUExampleScenario.node[22].veinsmobility speed ETV
vector 87 RSUExampleScenario.node[23].veinsmobility speed ETV
vector 88 RSUExampleScenario.node[24].veinsmobility speed ETV
vector 89 RSUExampleScenario.node[25].veinsmobility speed ETV
vector 90 RSUExampleScenario.node[26].veinsmobility speed ETV
vector 91 RSUExampleScenario.node[27].veinsmobility speed ETV
vector 92 RSUExampleScenario.node[28].veinsmobility speed ETV
vector 93 RSUExampleScenario.node[29].veinsmobility speed ETV
vector 94 RSUExampleScenario.node[30].veinsmobility speed ETV
vector 95 RSUExampleScenario.node[31].veinsmobility speed ETV
vector 96 RSUExampleScenario.node[0].veinsmobility acceleration ETV
vector 97 RSUExampleScenario.node[0].veinsmobility co2emission ETV
vector 98 RSUExampleScenario.node[1].veinsmobility acceleration ETV
vector 99 RSUExampleScenario.node[1].veinsmobility co2emission ETV
vector 100 RSUExampleScenario.node[2].veinsmobility acceleration ETV
vector 101 RSUExampleScenario.node[2].veinsmobility co2emission ETV
vector 102 RSUExampleScenario.node[3].veinsmobility acceleration ETV
vector 103 RSUExampleScenario.node[3].veinsmobility co2emission ETV
vector 104 RSUExampleScenario.node[4].veinsmobility acceleration ETV
vector 105 RSUExampleScenario.node[4].veinsmobility co2emission ETV
vector 106 RSUExampleScenario.node[5].veinsmobility acceleration ETV
vector 107 RSUExampleScenario.node[5].veinsmobility co2emission ETV
vector 108 RSUExampleScenario.node[6].veinsmobility acceleration ETV
vector 109 RSUExampleScenario.node[6].veinsmobility co2emission ETV
vector 110 RSUExampleScenario.node[7].veinsmobility acceleration ETV
vector 111 RSUExampleScenario.node[7].veinsmobility co2emission ETV
vector 112 RSUExampleScenario.node[8].veinsmobility acceleration ETV
vector 113 RSUExampleScenario.node[8].veinsmobility co2emission ETV
vector 114 RSUExampleScenario.node[9].veinsmobility acceleration ETV
vector 115 RSUExampleScenario.node[9].veinsmobility co2emission ETV
vector 116 RSUExampleScenario.node[10].veinsmobility acceleration ETV
vector 117 RSUExampleScenario.node[10].veinsmobility co2emission ETV
vector 118 RSUExampleScenario.node[11].veinsmobility acceleration ETV
vector 119 RSUExampleScenario.node[11].veinsmobility co2emission ETV
vector 120 RSUExampleScenario.node[12].veinsmobility acceleration ETV
vector 121 RSUExampleScenario.node[12].veinsmobility co2emission ETV
vector 122 RSUExampleScenario.node[13].veinsmobility acceleration ETV
vector 123 RSUExampleScenario.node[13].veinsmobility co2emission ETV
vector 124 RSUExampleScenario.node[14].veinsmobility acceleration ETV
vector 125 RSUExampleScenario.node[14].veinsmobility co2emission ETV
vector 126 RSUExampleScenario.node[15].veinsmobility acceleration ETV
vector 127 RSUExampleScenario.node[15].veinsmobility co2emission ETV
vector 128 RSUExampleScenario.node[16].veinsmobility acceleration ETV
vector 129 RSUExampleScenario.node[16].veinsmobility co2emission ETV
vector 130 RSUExampleScenario.node[17].veinsmobility acceleration ETV
vector 131 RSUExampleScenario.node[17].veinsmobility co2emission ETV
vector 132 RSUExampleScenario.node[18].veinsmobility acceleration ETV
vector 133 RSUExampleScenario.node[18].veinsmobility co2emission ETV
vector 134 RSUExampleScenario.node[19].veinsmobility acceleration ETV
vector 135 RSUExampleScenario.node[19].veinsmobility co2emission ETV
vector 136 RSUExampleScenario.node[20].veinsmobility acceleration ETV
vector 137 RSUExampleScenario.node[20].veinsmobility co2emission ETV
vector 138 RSUExampleScenario.node[21].veinsmobility acceleration ETV
vector 139 RSUExampleScenario.node[21].veinsmobility co2emission ETV
vector 140 RSUExampleScenario.node[22].veinsmobility acceleration ETV
vector 141 RSUExampleScenario.node[22].veinsmobility co2emission ETV
vector 142 RSUExampleScenario.node[23].veinsmobility acceleration ETV
vector 143 RSUExampleScenario.node[23].veinsmobility co2emission ETV
vector 144 RSUExampleScenario.node[24].veinsmobility acceleration ETV
vector 145 RSUExampleScenario.node[24].veinsmobility co2emission ETV
vector 146 RSUExampleScenario.node[25].veinsmobility acceleration ETV
vector 147 RSUExampleScenario.node[25].veinsmobility co2emission ETV
vector 148 RSUExampleScenario.node[26].veinsmobility acceleration ETV
vector 149 RSUExampleScenario.node[26].veinsmobility co2emission ETV
vector 150 RSUExampleScenario.node[27].veinsmobility acceleration ETV
vector 151 RSUExampleScenario.node[27].veinsmobility co2emission ETV
vector 152 RSUExampleScenario.node[28].veinsmobility acceleration ETV
vector 153 RSUExampleScenario.node[28].veinsmobility co2emission ETV
vector 154 RSUExampleScenario.node[29].veinsmobility acceleration ETV
vector 155 RSUExampleScenario.node[29].veinsmobility co2emission ETV
vector 156 RSUExampleScenario.node[30].veinsmobility acceleration ETV
vector 157 RSUExampleScenario.node[30].veinsmobility co2emission ETV
vector 158 RSUExampleScenario.node[31].veinsmobility acceleration ETV
vector 159 RSUExampleScenario.node[31].veinsmobility co2emission ETV
159	21962	3	4.4083064121071
159	22283	4	5.054919890084
159	44814	5	6.232205639537
159	60207	6	7.0700911403105
159	66739	7	0.973
159	67060	8	0.973
159	73970	9	3.4460451674923
159	90662	10	5.968940219275
159	113001	11	5.4832140780879
159	114706	12	8.0802574287495
159	121948	13	8.6945431270281
159	122979	14	9.4470891286174
159	144897	15	1.8912388920284
158	21962	3	2.0514420929621
158	22283	4	1.8503263625642
158	44814	5	1.9275384692545
158	60207	6	1.8643309156084
158	66739	7	-0.66256589242637
158	67060	8	-4.4577392888129
158	73970	9	1.0507781578108
158	90662	10	1.8873350342247
158	113001	11	1.4163249111276
158	114706	12	1.9788298832136
158	121948	13	1.8506158606638
158	122979	14	1.7873416762993
158	144897	15	-0.10627973874099
95	15436	2	3.9893178586375
95	21962	3	6.0407599515996
95	22283	4	7.8910863141638
95	44814	5	9.8186247834183
95	60207	6	11.682955699027
95	66739	7	11.0203898066
95	67060	8	6.5626505177875
95	73970	9	7.6134286755983
95	90662	10	9.500763709823
95	113001	11	10.917088620951
95	114706	12	12.895918504164
95	121948	13	14.746534364828
95	122979	14	16.533876041127
95	144897	15	16.427596302386
63	3	1	829.8
63	15436	2	826.6
63	21962	3	826.6
63	22283	4	826.6
63	44814	5	826.6
63	60207	6	826.6
63	66739	7	826.6
63	67060	8	826.6
63	73970	9	826.44052392273
63	90662	10	823.49939561896
63	113001	11	813.66642013976
63	114706	12	801.66196301029
63	121948	13	787.79113665667
63	122979	14	771.84396099993
63	144897	15	755.40320425413
62	3	1	453.43751616605
62	15436	2	456.48454212706
62	21962	3	461.63538207393
62	22283	4	468.71079384177
62	44814	5	477.66586694929
62	60207	6	488.44884371471
62	66739	7	500.53600000626
62	67060	8	509.09999853534
62	73970	9	515.71633254092
62	90662	10	523.66036262863
62	113001	11	526.6
62	114706	12	526.6
62	121948	13	526.6
62	122979	14	526.6
62	144897	15	526.6
99	21962	3	4.1827113811753
99	22283	4	5.1868572460009
99	44814	5	6.0905496404329
99	60207	6	7.0785750297826
99	66739	7	0.973
99	67060	8	0.973
99	73970	9	3.3496348465381
99	90662	10	5.8446273499878
99	113001	11	7.0602221790491
99	114706	12	0.973
99	121948	13	1.7005437480477
99	122979	14	1.7005437480477
99	144897	15	1.7005437480477
99	161752	16	1.7005437480477
99	167879	17	1.7005437480477
99	169306	18	1.7005437480477
98	21962	3	1.9221999636525
98	22283	4	1.9202294236911
98	44814	5	1.8789346108586
98	60207	6	1.8749595988309
98	66739	7	-0.65014380838816
98	67060	8	-4.4137562680932
98	73970	9	1.0033815250755
98	90662	10	1.8487683139276
98	113001	11	1.9245761614875
98	114706	12	-1.1499117351829
98	121948	13	0
98	122979	14	0
98	144897	15	0
98	161752	16	0
98	167879	17	0
98	169306	18	0
65	15436	2	4.0467622141406
65	21962	3	5.9689621777931
65	22283	4	7.8891916014841
65	44814	5	9.7681262123427
65	60207	6	11.643085811174
65	66739	7	10.992942002785
65	67060	8	6.5791857346923
65	73970	9	7.5825672597678
65	90662	10	9.4313355736954
65	113001	11	11.355911735183
65	114706	12	10.206
65	121948	13	10.206
65	122979	14	10.206
65	144897	15	10.206
65	161752	16	10.206
65	167879	17	10.206
65	169306	18	10.206
3	3	1	1120.2
3	15436	2	1123.4
3	21962	3	1123.4
3	22283	4	1123.4
3	44814	5	1123.4
3	60207	6	1123.4
3	66739	7	1123.4
3	67060	8	1123.4
3	73970	9	1123.4809400757
3	90662	10	1124.1000968828
3	113001	11	1127.7105185117
3	114706	12	1136.4425583365
3	121948	13	1146.6485583365
3	122979	14	1156.8545583365
3	144897	15	1167.0605583365
3	161752	16	1177.2665583365
3	167879	17	1187.4725583365
3	169306	18	1197.6785583365
2	3	1	908.42928870254
2	15436	2	905.23135130519
2	21962	3	900.16589603873
2	22283	4	893.07703396289
2	44814	5	884.12495380874
2	60207	6	873.35089491572
2	66739	7	861.37181170536
2	67060	8	852.78059910408
2	73970	9	846.15223494477
2	90662	10	837.52531676634
2	113001	11	827.80436721798
2	114706	12	823.4
2	121948	13	823.4
2	122979	14	823.4
2	144897	15	823.4
2	161752	16	823.4
2	167879	17	823.4
2	169306	18	823.4
143	21962	3	4.5922912501576
143	22283	4	5.4980070759717
143	44814	5	6.7547470037432
143	60207	6	2.1640830447759
143	66739	7	1.7663360174477
143	67060	8	1.7159383845239
143	73970	9	0.973
143	90662	10	0.973
143	113001	11	6.0698291595514
143	114706	12	5.09889549554
143	121948	13	1.4964933193509
143	122979	14	1.6588387157865
143	144897	15	1.8469864821313
143	161752	16	1.65459780976
143	167879	17	1.7636019287827
143	169306	18	1.7627304092354
143	176780	19	1.7386187373288
143	193004	20	1.6705794113685
143	212237	21	1.7303884014226
143	213205	22	1.7960941533592
143	219762	23	1.424836854377
142	21962	3	2.143525717645
142	22283	4	2.0114911149209
142	44814	5	2.0571322451276
142	60207	6	0.18008149256671
142	66739	7	0.020350404202473
142	67060	8	0.00022915587760508
142	73970	9	-2.4815732751944
142	90662	10	-0.89926808184595
142	113001	11	2.0407487710379
142	114706	12	1.3489400614944
142	121948	13	-0.085594608716201
142	122979	14	-0.019741894479376
142	144897	15	0.054072611520533
142	161752	16	-0.022374052791855
142	167879	17	0.020712804496288
142	169306	18	0.019709803061559
142	176780	19	0.0097505100094715
142	193004	20	-0.016941243715118
142	212237	21	0.0067847564746621
142	213205	22	0.031972396688071
142	219762	23	-0.11380215772893
87	15436	2	3.9840510474849
87	21962	3	6.1275767651298
87	22283	4	8.1390678800508
87	44814	5	10.196200125178
87	60207	6	10.376281617745
87	66739	7	10.396632021948
87	67060	8	10.396861177825
87	73970	9	7.9152879026307
87	90662	10	7.0160198207847
87	113001	11	9.0567685918226
87	114706	12	10.405708653317
87	121948	13	10.320114044601
87	122979	14	10.300372150121
87	144897	15	10.354444761642
87	161752	16	10.33207070885
87	167879	17	10.352783513346
87	169306	18	10.372493316408
87	176780	19	10.382243826417
87	193004	20	10.365302582702
87	212237	21	10.372087339177
87	213205	22	10.404059735865
87	219762	23	10.290257578136
47	3	1	1308.4501115212
47	15436	2	1305.310524081
47	21962	3	1300.1646238894
47	22283	4	1292.9303973672
47	44814	5	1283.6299544681
47	60207	6	1273.287209541
47	66739	7	1262.9445006643
47	67060	8	1252.5883868719
47	73970	9	1243.0436237187
47	90662	10	1236.5064106734
47	113001	11	1228.3733227902
47	114706	12	1219.3166880301
47	121948	13	1211.1785702004
47	122979	14	1203.8221959063
47	144897	15	1196.504203443
47	161752	16	1189.1863611988
47	167879	17	1181.8815925858
47	169306	18	1174.5638684698
47	176780	19	1167.2438912114
47	193004	20	1159.9383021839
47	212237	21	1152.609273525
47	213205	22	1145.2804168739
47	219762	23	1137.9687935274
46	3	1	629.8
46	15436	2	629.8
46	21962	3	629.8
46	22283	4	629.8
46	44814	5	629.8
46	60207	6	629.8
46	66739	7	629.8
46	67060	8	629.8
46	73970	9	629.8
46	90662	10	629.8
46	113001	11	630.77763341175
46	114706	12	634.86723337299
46	121948	13	641.19633228901
46	122979	14	648.44780409373
46	144897	15	655.76579655698
46	161752	16	663.08363880121
46	167879	17	670.3884074142
46	169306	18	677.7061315302
46	176780	19	685.02610878863
46	193004	20	692.3316978161
46	212237	21	699.660726475
46	213205	22	706.98958312609
46	219762	23	714.30120647255
125	21962	3	3.875844564241
125	22283	4	5.5105434647556
125	44814	5	6.2943972475357
125	60207	6	7.0966701209603
125	66739	7	9.1208695617884
125	67060	8	3.6919449667709
125	73970	9	1.9732559669971
125	90662	10	2.1990483000508
125	113001	11	2.3080256910363
125	114706	12	2.0249313333549
125	121948	13	1.8595567279137
125	122979	14	2.3154379503309
125	144897	15	2.0995190859148
125	161752	16	0.973
125	167879	17	0.973
125	169306	18	6.0621774903604
125	176780	19	0.973
125	193004	20	6.5792377710503
125	212237	21	6.7791005661723
125	213205	22	7.8483268101539
125	219762	23	8.0413576495082
125	220603	24	1.891274240073
125	240605	25	1.9879439748657
125	253020	26	2.1101933590295
124	21962	3	1.7387158883456
124	22283	4	2.0720873553609
124	44814	5	1.937741004359
124	60207	6	1.861061149931
124	66739	7	2.1222521900339
124	67060	8	0.46810038136108
124	73970	9	-0.02839886182919
124	90662	10	0.035880553913302
124	113001	11	0.065113866217436
124	114706	12	-0.015920482631774
124	121948	13	-0.061967313298956
124	122979	14	0.067609025400598
124	144897	15	0.0052411231468437
124	161752	16	-3.5143552164389
124	167879	17	-4.483845655513
124	169306	18	2.1674030952551
124	176780	19	-2.190373463955
124	193004	20	2.3639189385786
124	212237	21	1.9535178379854
124	213205	22	1.9483239634032
124	219762	23	1.7215418818931
124	220603	24	-0.052426397998351
124	240605	25	-0.023735526734963
124	253020	26	0.011386854867451
78	15436	2	4.1402637931638
78	21962	3	5.8789796815094
78	22283	4	7.9510670368703
78	44814	5	9.8888080412292
78	60207	6	11.74986919116
78	66739	7	13.872121381194
78	67060	8	14.340221762555
78	73970	9	14.311822900726
78	90662	10	14.347703454639
78	113001	11	14.412817320857
78	114706	12	14.396896838225
78	121948	13	14.334929524926
78	122979	14	14.402538550327
78	144897	15	14.407779673474
78	161752	16	10.893424457035
78	167879	17	6.4095788015216
78	169306	18	8.5769818967768
78	176780	19	6.3866084328217
78	193004	20	8.7505273714003
78	212237	21	10.704045209386
78	213205	22	12.652369172789
78	219762	23	14.373911054682
78	220603	24	14.321484656684
78	240605	25	14.297749129949
78	253020	26	14.309135984816
29	3	1	231.1451969846
29	15436	2	234.40596108134
29	21962	3	239.46314716796
29	22283	4	246.4568644863
29	44814	5	255.46289956009
29	60207	6	266.31949529872
29	66739	7	279.20469657111
29	67060	8	293.49473506713
29	73970	9	307.83886714686
29	90662	10	322.20270835413
29	113001	11	336.55976466623
29	114706	12	350.9258601174
29	121948	13	365.28046795831
29	122979	14	379.62760909093
29	144897	15	393.99216268911
29	161752	16	406.83094667577
29	167879	17	415.25352900798
29	169306	18	422.50530841414
29	176780	19	426.12752473395
29	193004	20	426.6
29	212237	21	426.6
29	213205	22	426.6
29	219762	23	426.6
29	220603	24	426.6
29	240605	25	426.6
29	253020	26	426.6
28	3	1	1220.2
28	15436	2	1220.2
28	21962	3	1220.2
28	22283	4	1223.4
28	44814	5	1223.4
28	60207	6	1223.4
28	66739	7	1223.4
28	67060	8	1223.4
28	73970	9	1223.4
28	90662	10	1223.4
28	113001	11	1223.4
28	114706	12	1223.4
28	121948	13	1223.4
28	122979	14	1223.4
28	144897	15	1223.4
28	161752	16	1223.4
28	167879	17	1223.4935495153
28	169306	18	1225.7431850485
28	176780	19	1232.0926731377
28	193004	20	1239.7879540018
28	212237	21	1249.6468833641
28	213205	22	1261.4258490595
28	219762	23	1275.0856982162
28	220603	24	1289.4233368448
28	240605	25	1303.7834585293
28	253020	26	1318.1141908087
107	21962	3	4.3222398671971
107	22283	4	5.6317108472365
107	44814	5	5.6184008732446
107	60207	6	8.0886313355191
107	66739	7	9.193089425765
107	67060	8	7.3624580618869
107	73970	9	0.973
107	90662	10	0.973
107	113001	11	3.3969254258468
107	114706	12	5.6374557683474
107	121948	13	7.0961045116366
107	122979	14	8.1677570900736
107	144897	15	9.0398344126045
107	161752	16	5.682112620617
107	167879	17	1.9735440018997
107	169306	18	2.3082610737333
107	176780	19	2.2476100238425
107	193004	20	0.973
107	212237	21	0.973
107	213205	22	6.7479947832498
107	219762	23	0.973
107	220603	24	0.973
107	240605	25	0.973
107	253020	26	3.7298537344656
106	21962	3	1.9903404831933
106	22283	4	2.0826404856099
106	44814	5	1.6717912631901
106	60207	6	2.1649839834729
106	66739	7	2.1072319530882
106	67060	8	1.3864372500125
106	73970	9	-4.4273164930904
106	90662	10	-4.5
106	113001	11	1.0323910718365
106	114706	12	1.7773859481094
106	121948	13	1.9505725618312
106	122979	14	1.9450077325269
106	144897	15	1.8876267540851
106	161752	16	0.88644210612903
106	167879	17	-0.072731723124161
106	169306	18	0.013963217420969
106	176780	19	-0.001758448416366
106	193004	20	-2.3930812546175
106	212237	21	-4.4961022762439
106	213205	22	1.89
106	219762	23	-0.67881306792901
106	220603	24	-4.2489138595347
106	240605	25	-0.96001536435681
106	253020	26	1.4519304141076
69	15436	2	4.0557845440995
69	21962	3	6.0461250272927
69	22283	4	8.1287655129026
69	44814	5	9.8005567760927
69	60207	6	11.965540759566
69	66739	7	14.072772712654
69	67060	8	15.459209962666
69	73970	9	11.031893469576
69	90662	10	6.531893469576
69	113001	11	7.5642845414125
69	114706	12	9.3416704895219
69	121948	13	11.292243051353
69	122979	14	13.23725078388
69	144897	15	15.124877537965
69	161752	16	16.011319644094
69	167879	17	15.93858792097
69	169306	18	15.952551138391
69	176780	19	15.950792689975
69	193004	20	13.557711435357
69	212237	21	9.0616091591132
69	213205	22	10.951609159113
69	219762	23	10.272796091184
69	220603	24	6.0238822316494
69	240605	25	5.0638668672926
69	253020	26	6.5157972814002
11	3	1	1248.498066442
11	15436	2	1248.4635581449
11	21962	3	1252.0832989216
11	22283	4	1257.1744920019
11	44814	5	1263.5537572398
11	60207	6	1271.3751541466
11	66739	7	1280.665303843
11	67060	8	1291.2897962215
11	73970	9	1300.4942860157
11	90662	10	1306.5448913608
11	113001	11	1311.0795070852
11	114706	12	1316.1915001176
11	121948	13	1318.6082186296
11	122979	14	1313.9967949739
11	144897	15	1304.5512179097
11	161752	16	1293.3405435139
11	167879	17	1282.0352403577
11	169306	18	1270.7380589037
11	176780	19	1259.4405554959
11	193004	20	1248.6966165435
11	212237	21	1240.8595518276
11	213205	22	1233.9468663037
11	219762	23	1229.2172607836
11	220603	24	1223.4801441718
11	240605	25	1221.0219645386
11	253020	26	1219.7195576037
10	3	1	1641.708066442
10	15436	2	1646.1935581449
10	21962	3	1649.8132989216
10	22283	4	1654.9044920019
10	44814	5	1661.2837572398
10	60207	6	1669.1051541466
10	66739	7	1678.395303843
10	67060	8	1689.0197962215
10	73970	9	1698.2242860157
10	90662	10	1704.2748913608
10	113001	11	1709.04378118
10	114706	12	1715.8678477083
10	121948	13	1725.8471254815
10	122979	14	1737.0618929653
10	144897	15	1747.7180190609
10	161752	16	1758.9272258988
10	167879	17	1770.2310491096
10	169306	18	1781.5267516813
10	176780	19	1792.8227761647
10	193004	20	1803.5653086583
10	212237	21	1811.4013474461
10	213205	22	1818.3210026814
10	219762	23	1827.6163750824
10	220603	24	1830.8656831026
10	240605	25	1829.2631078004
10	253020	26	1825.1436007376
137	21962	3	4.1514241793065
137	22283	4	5.1331802176586
137	44814	5	5.8425592214772
137	60207	6	7.3633882147772
137	66739	7	8.8828395828367
137	67060	8	9.3581844519428
137	73970	9	5.2053772006484
137	90662	10	2.3396996531025
137	113001	11	2.5321567789742
137	114706	12	2.3994254774579
137	121948	13	2.0411216716258
137	122979	14	2.6646918755312
137	144897	15	2.0254696912486
137	161752	16	0.973
137	167879	17	0.973
137	169306	18	3.7445403525043
137	176780	19	8.2281781330308
137	193004	20	2.3448102477575
137	212237	21	0.973
137	213205	22	0.973
137	219762	23	0.973
137	220603	24	6.2186613566467
137	240605	25	5.660252604127
137	253020	26	7.4181400258717
137	258756	27	8.4128135661477
137	259634	28	9.7723794940514
137	264921	29	2.3591509358001
136	21962	3	1.9488906116574
136	22283	4	1.9269235108467
136	44814	5	1.8147776455758
136	60207	6	1.9912277401914
136	66739	7	2.0895187071362
136	67060	8	1.9057838311652
136	73970	9	0.74012248037334
136	90662	10	0.010527631803416
136	113001	11	0.057482725176961
136	114706	12	0.023095025841609
136	121948	13	-0.065804924934636
136	122979	14	0.08936440027319
136	144897	15	-0.070292148489973
136	161752	16	-1.1365194595956
136	167879	17	-0.85304300192278
136	169306	18	0.45366211326095
136	176780	19	1.5074076473552
136	193004	20	0.011298799279611
136	212237	21	-4.2501882573159
136	213205	22	-4.5
136	219762	23	-0.23988678312165
136	220603	24	2.028317899378
136	240605	25	1.4926284042465
136	253020	26	1.8045644118893
136	258756	27	1.8121522604511
136	259634	28	1.8924473429043
136	264921	29	0.013242121483199
84	15436	2	3.887992514905
84	21962	3	5.8368831265624
84	22283	4	7.7638066374091
84	44814	5	9.5785842829849
84	60207	6	11.569812023176
84	66739	7	13.659330730312
84	67060	8	15.565114561478
84	73970	9	16.305237041851
84	90662	10	16.315764673654
84	113001	11	16.373247398831
84	114706	12	16.396342424673
84	121948	13	16.330537499738
84	122979	14	16.419901900012
84	144897	15	16.349609751522
84	161752	16	15.213090291926
84	167879	17	14.360047290003
84	169306	18	14.813709403264
84	176780	19	16.321117050619
84	193004	20	16.332415849899
84	212237	21	12.082227592583
84	213205	22	7.5822275925829
84	219762	23	7.3423408094613
84	220603	24	9.3706587088393
84	240605	25	10.863287113086
84	253020	26	12.667851524975
84	258756	27	14.480003785426
84	259634	28	16.37245112833
84	264921	29	16.385693249814
41	3	1	1007.6882037894
41	15436	2	1004.9581391162
41	21962	3	1000.4822763339
41	22283	4	994.33209672959
41	44814	5	986.53844505579
41	60207	6	976.96320390032
41	66739	7	965.62913758329
41	67060	8	952.47215433082
41	73970	9	937.96650751613
41	90662	10	923.3288237469
41	113001	11	908.69635620635
41	114706	12	894.05846069303
41	121948	13	879.42928849488
41	122979	14	864.79168944885
41	144897	15	850.13194795619
41	161752	16	835.67890803288
41	167879	17	830.19193630156
41	169306	18	826.6
41	176780	19	826.6
41	193004	20	826.6
41	212237	21	826.6
41	213205	22	826.6
41	219762	23	826.6
41	220603	24	824.43517244077
41	240605	25	815.60420733471
41	253020	26	803.84335718807
41	258756	27	790.17053084329
41	259634	28	774.6343769428
41	264921	29	758.25842337652
40	3	1	939.02589810531
40	15436	2	940.39093044188
40	21962	3	942.62886183304
40	22283	4	945.70395163521
40	44814	5	949.6007774721
40	60207	6	954.38839804984
40	66739	7	960.05543120836
40	67060	8	966.63392283459
40	73970	9	973.88674624193
40	90662	10	981.20558812655
40	113001	11	988.52182189683
40	114706	12	995.84076965348
40	121948	13	1003.1553557526
40	122979	14	1010.4741552756
40	144897	15	1017.8040260219
40	161752	16	1025.0305459836
40	167879	17	1037.3230386186
40	169306	18	1051.708870306
40	176780	19	1067.4891125178
40	193004	20	1083.8739026239
40	212237	21	1097.9760500375
40	213205	22	1107.5832776301
40	219762	23	1114.1816071179
40	220603	24	1122.2080459321
40	240605	25	1126.4565418093
40	253020	26	1126.6
40	258756	27	1126.6
40	259634	28	1126.6
40	264921	29	1126.6
101	21962	3	4.5121115583492
101	22283	4	5.0539954503073
101	44814	5	6.3267822556958
101	60207	6	7.307974082756
101	66739	7	8.8269394180607
101	67060	8	3.1879622955692
101	73970	9	2.12497776903
101	90662	10	2.2686104332702
101	113001	11	1.8401961258943
101	114706	12	2.206473580824
101	121948	13	2.3206589981515
101	122979	14	1.6502552513351
101	144897	15	1.5913257563649
101	161752	16	2.1028861577485
101	167879	17	2.1996756886745
101	169306	18	2.5555040060575
101	176780	19	2.1829541631447
101	193004	20	1.9722937542298
101	212237	21	1.9990621125884
101	213205	22	1.9274883551267
101	219762	23	0.973
101	220603	24	0.973
101	240605	25	4.6238187026546
101	253020	26	5.7341318473481
101	258756	27	6.8727047253192
101	259634	28	8.8115394630859
101	264921	29	3.811723077274
101	278054	30	2.0705044465712
101	293093	31	1.8966776693809
101	293719	32	2.1008640752693
100	21962	3	2.1037252768152
100	22283	4	1.8396043691109
100	44814	5	1.9528475042409
100	60207	6	1.9246140546119
100	66739	7	2.0390009468957
100	67060	8	0.33098979762913
100	73970	9	0.019254510174505
100	90662	10	0.059185570308474
100	113001	11	-0.063863390812184
100	114706	12	0.041833480787464
100	121948	13	0.07253859138349
100	122979	14	-0.1192914397805
100	144897	15	-0.13374016144974
100	161752	16	0.016779058838729
100	167879	17	0.043852003554347
100	169306	18	0.1426626881022
100	176780	19	0.033140713132452
100	193004	20	-0.0272554749134
100	212237	21	-0.018917192777153
100	213205	22	-0.038697842534166
100	219762	23	-3.066378625277
100	220603	24	-4.4416764707465
100	240605	25	1.5433427875279
100	253020	26	1.6936431305786
100	258756	27	1.7873279907415
100	259634	28	2.0481328351935
100	264921	29	0.50700192306818
100	278054	30	0.0008711065468372
100	293093	31	-0.048345336248167
100	293719	32	0.010862722173334
66	15436	2	3.9860061362494
66	21962	3	6.0897314130646
66	22283	4	7.9293357821755
66	44814	5	9.8821832864164
66	60207	6	11.806797341028
66	66739	7	13.845798287924
66	67060	8	14.176788085553
66	73970	9	14.196042595728
66	90662	10	14.255228166036
66	113001	11	14.191364775224
66	114706	12	14.233198256011
66	121948	13	14.305736847395
66	122979	14	14.186445407614
66	144897	15	14.052705246165
66	161752	16	14.069484305003
66	167879	17	14.113336308558
66	169306	18	14.25599899666
66	176780	19	14.289139709792
66	193004	20	14.261884234879
66	212237	21	14.242967042102
66	213205	22	14.204269199568
66	219762	23	11.137890574291
66	220603	24	6.6962141035442
66	240605	25	8.2395568910721
66	253020	26	9.9332000216507
66	258756	27	11.720528012392
66	259634	28	13.768660847586
66	264921	29	14.275662770654
66	278054	30	14.276533877201
66	293093	31	14.228188540953
66	293719	32	14.239051263126
5	3	1	1229.8
5	15436	2	1229.8
5	21962	3	1229.8
5	22283	4	1229.8
5	44814	5	1229.8
5	60207	6	1229.8
5	66739	7	1229.8
5	67060	8	1229.8
5	73970	9	1229.8
5	90662	10	1229.8
5	113001	11	1229.8
5	114706	12	1229.8
5	121948	13	1229.8
5	122979	14	1229.8
5	144897	15	1227.7142606836
5	161752	16	1218.7873177381
5	167879	17	1205.5299788079
5	169306	18	1191.3915021968
5	176780	19	1177.1534196604
5	193004	20	1162.900159744
5	212237	21	1148.680974229
5	213205	22	1134.4600968249
5	219762	23	1122.8224274448
5	220603	24	1116.1373066399
5	240605	25	1110.826571929
5	253020	26	1104.3075213943
5	258756	27	1096.5639817365
5	259634	28	1087.4504013926
5	264921	29	1077.3925589607
5	278054	30	1067.3249887334
5	293093	31	1057.2469724743
5	293719	32	1047.175858751
4	3	1	653.46234627634
4	15436	2	656.63305450106
4	21962	3	661.78994025709
4	22283	4	668.87791570434
4	44814	5	677.84674399128
4	60207	6	688.80428798703
4	66739	7	701.72215376716
4	67060	8	715.93199323664
4	73970	9	730.16275945981
4	90662	10	744.39799137579
4	113001	11	758.645619159
4	114706	12	772.89094782865
4	121948	13	787.14005660598
4	122979	14	801.37597622544
4	144897	15	815.22904618445
4	161752	16	825.57761535349
4	167879	17	829.39925196748
4	169306	18	829.8
4	176780	19	829.8
4	193004	20	829.8
4	212237	21	829.8
4	213205	22	829.98469713048
4	219762	23	835.36945957875
4	220603	24	840.91600734761
4	240605	25	845.96342807098
4	253020	26	852.48247860566
4	258756	27	860.22601826352
4	259634	28	869.33959860743
4	264921	29	879.39744103931
4	278054	30	889.46501126661
4	293093	31	899.54302752575
4	293719	32	909.61414124905
129	21962	3	4.2656090140466
129	22283	4	5.5052549327294
129	44814	5	6.9384532679481
129	60207	6	7.4491198919679
129	66739	7	8.0048344225993
129	67060	8	4.5475015881383
129	73970	9	1.8069965062069
129	90662	10	0.973
129	113001	11	0.973
129	114706	12	0.973
129	121948	13	6.168422636104
129	122979	14	6.6021981808819
129	144897	15	7.2376981582857
129	161752	16	8.8165335336272
129	167879	17	4.0371596848667
129	169306	18	2.1474007148529
129	176780	19	2.2130314232239
129	193004	20	1.8274684498004
129	212237	21	2.3276494347261
129	213205	22	2.1487578966384
129	219762	23	2.2186028779372
129	220603	24	1.7239654481966
129	240605	25	2.271139915644
129	253020	26	2.0157208067191
129	258756	27	2.1949031546048
129	259634	28	2.0352436766661
129	264921	29	2.1230138163241
129	278054	30	2.0309800676062
129	293093	31	2.1674435074325
129	293719	32	1.945665336601
129	298515	33	2.3648655470157
128	21962	3	1.8997992767603
128	22283	4	2.0003120320849
128	44814	5	2.107286953344
128	60207	6	1.8990621705726
128	66739	7	1.7727279200824
128	67060	8	0.69028324582736
128	73970	9	-0.083247739437503
128	90662	10	-0.42656088719816
128	113001	11	-4.4889915206313
128	114706	12	-3.7770548548077
128	121948	13	2.3290354927722
128	122979	14	1.9925334131392
128	144897	15	1.8524341796059
128	161752	16	1.9986787742283
128	167879	17	0.54949752192915
128	169306	18	0.012325109331869
128	176780	19	0.029974961443804
128	193004	20	-0.077284567274619
128	212237	21	0.062937329018023
128	213205	22	0.011849018072242
128	219762	23	0.03063477210002
128	220603	24	-0.10672495923005
128	240605	25	0.047481784226839
128	253020	26	-0.024313910370694
128	258756	27	0.025795507559087
128	259634	28	-0.018963009545113
128	264921	29	0.0057996017392714
128	278054	30	-0.019767722180113
128	293093	31	0.018461756086909
128	293719	32	-0.043350664437749
128	298515	33	0.073474974317943
80	15436	2	4.292120039142
80	21962	3	6.1919193159023
80	22283	4	8.1922313479872
80	44814	5	10.299518301331
80	60207	6	12.198580471904
80	66739	7	13.971308391986
80	67060	8	14.661591637814
80	73970	9	14.578343898376
80	90662	10	14.151783011178
80	113001	11	9.6627914905466
80	114706	12	5.8857366357389
80	121948	13	8.2147721285111
80	122979	14	10.20730554165
80	144897	15	12.059739721256
80	161752	16	14.058418495485
80	167879	17	14.607916017414
80	169306	18	14.620241126746
80	176780	19	14.650216088189
80	193004	20	14.572931520915
80	212237	21	14.635868849933
80	213205	22	14.647717868005
80	219762	23	14.678352640105
80	220603	24	14.571627680875
80	240605	25	14.619109465102
80	253020	26	14.594795554731
80	258756	27	14.62059106229
80	259634	28	14.601628052745
80	264921	29	14.607427654484
80	278054	30	14.587659932304
80	293093	31	14.606121688391
80	293719	32	14.562771023953
80	298515	33	14.636245998271
33	3	1	714.36090442954
33	15436	2	711.98981896019
33	21962	3	705.96016230078
33	22283	4	700.79052913572
33	44814	5	694.21466697519
33	60207	6	686.20691242738
33	66739	7	676.89060105228
33	67060	8	666.60877706673
33	73970	9	656.2967355094
33	90662	10	645.99430425707
33	113001	11	637.7362144082
33	114706	12	632.59930729514
33	121948	13	627.09366742842
33	122979	14	618.06402250206
33	144897	15	606.82924607163
33	161752	16	593.72009400582
33	167879	17	579.15677934096
33	169306	18	564.5267388703
33	176780	19	549.90582520503
33	193004	20	535.29845585459
33	212237	21	520.66984510208
33	213205	22	506.06967865294
33	219762	23	491.4689892646
33	220603	24	476.84371499638
33	240605	25	462.23569017734
33	253020	26	447.62136687703
33	258756	27	433.009056774
33	259634	28	418.3797262954
33	264921	29	403.74665517027
33	278054	30	389.11840441775
33	293093	31	374.50368568294
33	293719	32	359.89269077262
33	298515	33	345.28181623246
32	3	1	842.42909557046
32	15436	2	844.80018103981
32	21962	3	846.30983769922
32	22283	4	851.47947086428
32	44814	5	858.05533302481
32	60207	6	866.06308757262
32	66739	7	875.37939894772
32	67060	8	885.66122293327
32	73970	9	895.9732644906
32	90662	10	906.27569574293
32	113001	11	914.5337855918
32	114706	12	919.67069270486
32	121948	13	924.28450407336
32	122979	14	926.41696945684
32	144897	15	926.6
32	161752	16	926.6
32	167879	17	926.6
32	169306	18	926.6
32	176780	19	926.6
32	193004	20	926.6
32	212237	21	926.6
32	213205	22	926.6
32	219762	23	926.6
32	220603	24	926.6
32	240605	25	926.6
32	253020	26	926.6
32	258756	27	926.6
32	259634	28	926.6
32	264921	29	926.6
32	278054	30	926.6
32	293093	31	926.6
32	293719	32	926.6
32	298515	33	926.6
105	21962	3	4.6154744391949
105	22283	4	4.9031319399221
105	44814	5	6.4439412516456
105	60207	6	6.9220527658505
105	66739	7	3.0509481776847
105	67060	8	1.9423717596402
105	73970	9	1.8562517498077
105	90662	10	2.0879370682485
105	113001	11	1.7549361561542
105	114706	12	2.037011174132
105	121948	13	1.5097911269642
105	122979	14	1.895900578814
105	144897	15	1.9747884484941
105	161752	16	1.7896514710428
105	167879	17	2.0803479693798
105	169306	18	1.647558721362
105	176780	19	2.0788581447086
105	193004	20	1.842398479657
105	212237	21	1.9866241535293
105	213205	22	1.5140433334509
105	219762	23	2.0279467709299
105	220603	24	1.8825560351667
105	240605	25	1.6716767203524
105	253020	26	2.0344835732841
105	258756	27	1.8116975572174
105	259634	28	2.0877199395117
105	264921	29	1.8771367384776
105	278054	30	1.7941403419493
105	293093	31	1.8594277652332
105	293719	32	1.8343309791339
105	298515	33	1.6718981422901
105	299017	34	1.9141361758847
104	21962	3	2.1341077044327
104	22283	4	1.7558462764183
104	44814	5	1.9891913347668
104	60207	6	1.8014362637512
104	66739	7	0.4064137843604
104	67060	8	0.026795209420378
104	73970	9	-0.0024875293509101
104	90662	10	0.073808332602495
104	113001	11	-0.038012037340087
104	114706	12	0.055921902328265
104	121948	13	-0.12003679983551
104	122979	14	0.011557204804848
104	144897	15	0.037242727924603
104	161752	16	-0.02506582831731
104	167879	17	0.071486720261163
104	169306	18	-0.073484071511775
104	176780	19	0.071069027141203
104	193004	20	-0.0088672566483741
104	212237	21	0.038780098049902
104	213205	22	-0.11866733871633
104	219762	23	0.054979744111188
104	220603	24	0.0053656154545028
104	240605	25	-0.064702963628806
104	253020	26	0.057275390850846
104	258756	27	-0.017987934078556
104	259634	28	0.073362530150916
104	264921	29	0.0019923417782408
104	278054	30	-0.025388802534435
104	293093	31	-0.0031435583555126
104	293719	32	-0.011326427441091
104	298515	33	-0.064876123706345
104	299017	34	0.017294403829146
68	15436	2	4.0581920730798
68	21962	3	6.1922997775125
68	22283	4	7.9481460539308
68	44814	5	9.9373373886976
68	60207	6	11.738773652449
68	66739	7	12.145187436809
68	67060	8	12.17198264623
68	73970	9	12.169495116879
68	90662	10	12.243303449481
68	113001	11	12.205291412141
68	114706	12	12.261213314469
68	121948	13	12.141176514634
68	122979	14	12.152733719439
68	144897	15	12.189976447363
68	161752	16	12.164910619046
68	167879	17	12.236397339307
68	169306	18	12.162913267795
68	176780	19	12.233982294937
68	193004	20	12.225115038288
68	212237	21	12.263895136338
68	213205	22	12.145227797622
68	219762	23	12.200207541733
68	220603	24	12.205573157187
68	240605	25	12.140870193559
68	253020	26	12.19814558441
68	258756	27	12.180157650331
68	259634	28	12.253520180482
68	264921	29	12.25551252226
68	278054	30	12.230123719726
68	293093	31	12.22698016137
68	293719	32	12.215653733929
68	298515	33	12.150777610223
68	299017	34	12.168072014052
9	3	1	1139.0981554786
9	15436	2	1141.9485870297
9	21962	3	1146.5938733734
9	22283	4	1152.9804076851
9	44814	5	1161.0402903449
9	60207	6	1170.85210096
9	66739	7	1181.7244009819
9	67060	8	1192.6438521566
9	73970	9	1203.5441793039
9	90662	10	1214.4818933731
9	113001	11	1225.3937880156
9	114706	12	1236.3349131234
9	121948	13	1247.2444090073
9	122979	14	1258.1403268446
9	144897	15	1269.0401462793
9	161752	16	1279.946827093
9	167879	17	1290.8671312822
9	169306	18	1301.7719034622
9	176780	19	1312.6923146096
9	193004	20	1323.771497582
9	212237	21	1335.520622673
9	213205	22	1347.472987946
9	219762	23	1359.6768488878
9	220603	24	1371.881494143
9	240605	25	1384.0967161525
9	253020	26	1396.3094499221
9	258756	27	1408.4896092633
9	259634	28	1420.6907242011
9	264921	29	1432.8870543575
9	278054	30	1445.1099993053
9	293093	31	1457.3169916322
9	293719	32	1469.5109604036
9	298515	33	1481.7159172865
9	299017	34	1493.9172692899
8	3	1	1326.6790777393
8	15436	2	1328.1042935149
8	21962	3	1330.4269366867
8	22283	4	1333.6202038426
8	44814	5	1337.6501451725
8	60207	6	1342.55605048
8	66739	7	1347.992200491
8	67060	8	1353.4519260783
8	73970	9	1358.9020896519
8	90662	10	1364.3709466866
8	113001	11	1369.8268940078
8	114706	12	1375.2974565617
8	121948	13	1380.7522045037
8	122979	14	1386.2001634223
8	144897	15	1391.6500731396
8	161752	16	1397.1034135465
8	167879	17	1402.5635656411
8	169306	18	1408.0159517311
8	176780	19	1413.4761573048
8	193004	20	1417.9967847268
8	212237	21	1419.9654840633
8	213205	22	1420.2
8	219762	23	1420.2
8	220603	24	1420.2
8	240605	25	1420.2
8	253020	26	1420.2
8	258756	27	1420.2
8	259634	28	1420.2
8	264921	29	1420.2
8	278054	30	1420.2
8	293093	31	1420.2
8	293719	32	1420.2
8	298515	33	1420.2
8	299017	34	1420.2
155	21962	3	3.7542512805479
155	22283	4	5.4849135476318
155	44814	5	6.0123985585944
155	60207	6	6.9042015238743
155	66739	7	8.4131204656032
155	67060	8	0.973
155	73970	9	0.973
155	90662	10	4.863234709199
155	113001	11	6.1153927022747
155	114706	12	2.1491984227309
155	121948	13	7.2211455218034
155	122979	14	8.1947165461579
155	144897	15	5.3290914331646
155	161752	16	2.0612913224324
155	167879	17	2.1633946173007
155	169306	18	0.973
155	176780	19	0.973
155	193004	20	7.3035335842191
155	212237	21	6.3404441607979
155	213205	22	2.153719376904
155	219762	23	1.9675655099802
155	220603	24	1.9533080031694
155	240605	25	2.2863246712415
155	253020	26	0.973
155	258756	27	0.973
155	259634	28	4.5372900319844
155	264921	29	6.6292924845399
155	278054	30	6.4607830971614
155	293093	31	8.188455098494
155	293719	32	6.6475201446808
155	298515	33	1.8619524187803
155	299017	34	2.1213554733484
155	311981	35	2.0609089901865
155	321435	36	2.1675472120434
155	325453	37	2.0144430650686
155	326407	38	2.1182779266557
155	330093	39	2.1889567068655
155	337378	40	1.9605676248973
155	351049	41	2.2808173136824
155	351799	42	2.0815978869436
154	21962	3	1.686208942309
154	22283	4	2.0850292439922
154	44814	5	1.8566443336406
154	60207	6	1.8304095383594
154	66739	7	1.9710704588005
154	67060	8	-2.9295052661882
154	73970	9	-4.5
154	90662	10	1.7598999162344
154	113001	11	1.8946109750005
154	114706	12	0.19570867438102
154	121948	13	1.8895474291476
154	122979	14	1.8730458226893
154	144897	15	0.91542404780251
154	161752	16	-0.011732884328813
154	167879	17	0.016740440886934
154	169306	18	-1.9984769886828
154	176780	19	-0.91079729614081
154	193004	20	1.6536953494418
154	212237	21	1.2073624084729
154	213205	22	0.015040120377671
154	219762	23	-0.036868581231683
154	220603	24	-0.039829823595937
154	240605	25	0.053540965889114
154	253020	26	-4.2247862157699
154	258756	27	-4.5
154	259634	28	1.6708404495055
154	264921	29	2.13711381878
154	278054	30	1.7054495223705
154	293093	31	1.9408643601672
154	293719	32	1.293059049664
154	298515	33	-0.066202957606874
154	299017	34	0.0076675231568526
154	311981	35	-0.0093143194587899
154	321435	36	0.020500061614438
154	325453	37	-0.022531803105958
154	326407	38	0.0069256111700078
154	330093	39	0.026264252173714
154	337378	40	-0.037798795762937
154	351049	41	0.051971543089021
154	351799	42	-0.0046326187509109
93	15436	2	4.0910539485528
93	21962	3	5.7772628908618
93	22283	4	7.862292134854
93	44814	5	9.7189364684945
93	60207	6	11.549346006854
93	66739	7	13.520416465654
93	67060	8	10.590911199466
93	73970	9	6.0909111994663
93	90662	10	7.8508111157007
93	113001	11	9.7454220907012
93	114706	12	9.9411307650822
93	121948	13	11.83067819423
93	122979	14	13.703724016919
93	144897	15	14.619148064722
93	161752	16	14.607415180393
93	167879	17	14.62415562128
93	169306	18	12.625678632597
93	176780	19	11.714881336456
93	193004	20	13.368576685898
93	212237	21	14.575939094371
93	213205	22	14.590979214749
93	219762	23	14.554110633517
93	220603	24	14.514280809921
93	240605	25	14.56782177581
93	253020	26	10.34303556004
93	258756	27	5.8430355600402
93	259634	28	7.5138760095457
93	264921	29	9.6509898283257
93	278054	30	11.356439350696
93	293093	31	13.297303710863
93	293719	32	14.590362760527
93	298515	33	14.52415980292
93	299017	34	14.531827326077
93	311981	35	14.522513006619
93	321435	36	14.543013068233
93	325453	37	14.520481265127
93	326407	38	14.527406876297
93	330093	39	14.553671128471
93	337378	40	14.515872332708
93	351049	41	14.567843875797
93	351799	42	14.563211257046
59	3	1	529.8
59	15436	2	526.6
59	21962	3	526.6
59	22283	4	526.6
59	44814	5	526.6
59	60207	6	526.6
59	66739	7	526.6
59	67060	8	526.6
59	73970	9	526.6
59	90662	10	526.32590179586
59	113001	11	522.60114314839
59	114706	12	513.40011562894
59	121948	13	502.35983841134
59	122979	14	489.47494482829
59	144897	15	475.05435659209
59	161752	16	460.45945542838
59	167879	17	445.88666415701
59	169306	18	431.86054422429
59	176780	19	421.79296468471
59	193004	20	412.8973592189
59	212237	21	402.84077620156
59	213205	22	392.53298204445
59	219762	23	382.24203552733
59	220603	24	371.94132262128
59	240605	25	361.62892228836
59	253020	26	352.90504030972
59	258756	27	347.34155627246
59	259634	28	342.67063256844
59	264921	29	336.26632096463
59	278054	30	330.58405599937
59	293093	31	329.8
59	293719	32	329.8
59	298515	33	329.8
59	299017	34	329.8
59	311981	35	329.8
59	321435	36	329.8
59	325453	37	329.8
59	326407	38	329.8
59	330093	39	329.8
59	337378	40	329.8
59	351049	41	329.8
59	351799	42	329.8
58	3	1	541.57987827161
58	15436	2	544.82376526125
58	21962	3	549.90563430725
58	22283	4	556.87005305168
58	44814	5	565.76488852484
58	60207	6	576.49171455331
58	66739	7	589.12873996947
58	67060	8	601.62649814457
58	73970	9	609.74240934404
58	90662	10	616.51868742901
58	113001	11	624.19931411096
58	114706	12	626.6
58	121948	13	626.6
58	122979	14	626.6
58	144897	15	629.8
58	161752	16	629.8
58	167879	17	629.8
58	169306	18	629.8
58	176780	19	635.05577724104
58	193004	20	643.8926407811
58	212237	21	653.94922379844
58	213205	22	664.25701795555
58	219762	23	674.54796447267
58	220603	24	684.84867737872
58	240605	25	695.16107771164
58	253020	26	703.88495969028
58	258756	27	709.44844372754
58	259634	28	713.98230143949
58	264921	29	719.84944766278
58	278054	30	728.52644240553
58	293093	31	740.85670590617
58	293719	32	755.11499780364
58	298515	33	769.68339320763
58	299017	34	784.22997449012
58	311981	35	798.80142654492
58	321435	36	813.36104915388
58	325453	37	827.94356787435
58	326407	38	842.48047855393
58	330093	39	857.03385450622
58	337378	40	871.60138778957
58	351049	41	886.17827326183
58	351799	42	900.77709939695
133	21962	3	4.155810318792
133	22283	4	5.5443083280989
133	44814	5	7.2222696971764
133	60207	6	8.5938510478858
133	66739	7	8.8836482116682
133	67060	8	5.6320372199297
133	73970	9	1.9396967811792
133	90662	10	2.3241346627461
133	113001	11	2.3087898506594
133	114706	12	2.032253809801
133	121948	13	2.188325093898
133	122979	14	2.1084992915942
133	144897	15	0.973
133	161752	16	0.973
133	167879	17	0.973
133	169306	18	6.3569864433863
133	176780	19	5.577181308565
133	193004	20	4.2680630521565
133	212237	21	8.0874695479402
133	213205	22	9.3890278785245
133	219762	23	3.0271493783214
133	220603	24	1.9912694323386
133	240605	25	2.1470479994447
133	253020	26	2.5480415675487
133	258756	27	2.0001810743928
133	259634	28	2.2367985086826
133	264921	29	2.1607572996745
133	278054	30	2.3873097895445
133	293093	31	1.8190578580967
133	293719	32	0.973
133	298515	33	0.973
133	299017	34	1.7553243790947
133	311981	35	1.4963748105408
133	321435	36	3.3036281651899
133	325453	37	6.4160260100285
133	326407	38	7.2359743043334
133	330093	39	8.6640976560985
133	337378	40	7.9908401050273
133	351049	41	2.4818390579378
133	351799	42	1.8036287862524
133	355624	43	2.3858703349504
133	356160	44	1.9633535445668
133	366077	45	2.254312208129
133	375041	46	2.1276216744132
133	378396	47	2.2453833539153
133	379022	48	2.3410712958745
132	21962	3	1.9028248019656
132	22283	4	2.0648265564488
132	44814	5	2.2300122018903
132	60207	6	2.2259515847708
132	66739	7	1.9529326999281
132	67060	8	0.92968943930425
132	73970	9	-0.065122747994028
132	90662	10	0.037819699256215
132	113001	11	0.032599908832927
132	114706	12	-0.040864983794744
132	121948	13	0.0013145229732618
132	122979	14	-0.019699078872801
132	144897	15	-2.0750075621264
132	161752	16	-4.481020638316
132	167879	17	-2.37
132	169306	18	2.2807038412546
132	176780	19	1.5690550242305
132	193004	20	0.92523377493722
132	212237	21	1.9421099673002
132	213205	22	1.987618482362
132	219762	23	0.22876930368591
132	220603	24	-0.050278712029103
132	240605	25	-0.0077358458051471
132	253020	26	0.097601451773663
132	258756	27	-0.048983027788346
132	259634	28	0.014647287987174
132	264921	29	-0.0057563294493601
132	278054	30	0.053735129192937
132	293093	31	-0.097204800259787
132	293719	32	-4.2049357574781
132	298515	33	-4.467098714872
132	299017	34	0.17662297360969
132	311981	35	0.017636803069617
132	321435	36	0.95029487845255
132	325453	37	2.0161592184333
132	326407	38	1.9211647561449
132	330093	39	2.014405609474
132	337378	40	1.5780562946346
132	351049	41	0.079778937038499
132	351799	42	-0.10094022700097
132	355624	43	0.05542271126993
132	356160	44	-0.057468155350071
132	366077	45	0.020959992676508
132	375041	46	-0.013046117704361
132	378396	47	0.018366310449782
132	379022	48	0.042897089319304
82	15436	2	4.068015635966
82	21962	3	5.9708404379316
82	22283	4	8.0356669943804
82	44814	5	10.265679196271
82	60207	6	12.491630781042
82	66739	7	14.44456348097
82	67060	8	15.374252920274
82	73970	9	15.30913017228
82	90662	10	15.346949871536
82	113001	11	15.379549780369
82	114706	12	15.338684796574
82	121948	13	15.339999319548
82	122979	14	15.320300240675
82	144897	15	13.245292678548
82	161752	16	8.7642720402323
82	167879	17	6.3942720402323
82	169306	18	8.6749758814869
82	176780	19	10.244030905717
82	193004	20	11.169264680655
82	212237	21	13.111374647955
82	213205	22	15.098993130317
82	219762	23	15.327762434003
82	220603	24	15.277483721974
82	240605	25	15.269747876168
82	253020	26	15.367349327942
82	258756	27	15.318366300154
82	259634	28	15.333013588141
82	264921	29	15.327257258692
82	278054	30	15.380992387885
82	293093	31	15.283787587625
82	293719	32	11.078851830147
82	298515	33	6.6117531152746
82	299017	34	6.7883760888843
82	311981	35	6.8060128919539
82	321435	36	7.7563077704065
82	325453	37	9.7724669888398
82	326407	38	11.693631744985
82	330093	39	13.708037354459
82	337378	40	15.286093649093
82	351049	41	15.365872586132
82	351799	42	15.264932359131
82	355624	43	15.320355070401
82	356160	44	15.262886915051
82	366077	45	15.283846907727
82	375041	46	15.270800790023
82	378396	47	15.289167100473
82	379022	48	15.332064189792
37	3	1	646.59327597271
37	15436	2	649.40473213269
37	21962	3	653.97873415769
37	22283	4	660.36810653349
37	44814	5	667.20706252633
37	60207	6	677.48090117871
37	66739	7	689.63845496372
37	67060	8	703.18219161989
37	73970	9	716.87987664388
37	90662	10	730.58283707926
37	113001	11	744.30325857573
37	114706	12	758.02930263996
37	121948	13	771.73409144358
37	122979	14	785.44460779606
37	144897	15	798.61436357679
37	161752	16	808.25807957272
37	167879	17	814.2641737591
37	169306	18	820.74303169466
37	176780	19	823.15966921896
37	193004	20	819.04100769451
37	212237	21	813.60089692502
37	213205	22	810.1069435111
37	219762	23	803.25810564383
37	220603	24	796.41391308853
37	240605	25	789.57078780395
37	253020	26	782.71507757866
37	258756	27	775.86508127799
37	259634	28	769.0126531748
37	264921	29	762.15740314016
37	278054	30	755.30780060396
37	293093	31	748.45942993066
37	293719	32	742.60149990201
37	298515	33	738.7460675319
37	299017	34	735.95066832245
37	311981	35	737.49197997246
37	321435	36	744.51599953068
37	325453	37	753.32428770876
37	326407	38	764.11701524701
37	330093	39	776.88014376587
37	337378	40	791.6062579868
37	351049	41	806.92265189694
37	351799	42	822.23289156983
37	355624	43	837.54793344535
37	356160	44	852.84195915117
37	366077	45	868.15374569056
37	375041	46	883.47438912772
37	378396	47	898.76579012676
37	379022	48	914.10021694827
36	3	1	1230.431793666
36	15436	2	1231.837601278
36	21962	3	1234.1247316824
36	22283	4	1237.3195986163
36	44814	5	1244.3143105294
36	60207	6	1249.4515204875
36	66739	7	1255.5306412995
36	67060	8	1262.3028927602
36	73970	9	1269.1521227598
36	90662	10	1276.0039906142
36	113001	11	1282.8645894932
36	114706	12	1289.7279998151
36	121948	13	1296.5807819054
36	122979	14	1303.4364279322
36	144897	15	1310.0216783758
36	161752	16	1314.8438091804
36	167879	17	1317.8470261773
36	169306	18	1321.9213201188
36	176780	19	1330.8892046599
36	193004	20	1340.4976747001
36	212237	21	1351.3772807027
36	213205	22	1365.5177575468
36	219762	23	1379.2162082998
36	220603	24	1392.9053679032
36	240605	25	1406.5923928443
36	253020	26	1420.304589091
36	258756	27	1434.0053568419
36	259634	28	1447.7109884729
36	264921	29	1461.4222642863
36	278054	30	1475.1222444636
36	293093	31	1488.8197607758
36	293719	32	1500.5362837198
36	298515	33	1508.247584743
36	299017	34	1514.130623746
36	311981	35	1519.7740222462
36	321435	36	1520.2
36	325453	37	1520.2
36	326407	38	1520.2
36	330093	39	1520.2
36	337378	40	1520.2
36	351049	41	1520.2
36	351799	42	1520.2
36	355624	43	1520.2
36	356160	44	1520.2
36	366077	45	1520.2
36	375041	46	1520.2
36	378396	47	1520.2
36	379022	48	1520.2
113	21962	3	4.5082277903388
113	22283	4	5.1074116792575
113	44814	5	6.8475325888678
113	60207	6	8.0684913665117
113	66739	7	8.8823955080037
113	67060	8	0.973
113	73970	9	0.973
113	90662	10	0.973
113	113001	11	1.2163455375533
113	114706	12	4.0659423677138
113	121948	13	5.7913094887614
113	122979	14	6.7844375364882
113	144897	15	7.2653895046449
113	161752	16	8.7916176980586
113	167879	17	0.973
113	169306	18	0.973
113	176780	19	0.973
113	193004	20	5.9343835070839
113	212237	21	4.5380305684223
113	213205	22	4.2914248043714
113	219762	23	7.3539219344297
113	220603	24	8.8681558382857
113	240605	25	2.5487579385561
113	253020	26	1.9466872574043
113	258756	27	2.0626826461336
113	259634	28	2.2130252220773
113	264921	29	2.282960130553
113	278054	30	2.0040005679092
113	293093	31	2.2077740473991
113	293719	32	2.0662431404924
113	298515	33	0.973
113	299017	34	0.973
113	311981	35	0.973
113	321435	36	0.973
113	325453	37	2.6444937072927
113	326407	38	4.8732893136988
113	330093	39	6.4830063488277
113	337378	40	7.3232787383957
113	351049	41	8.0734545885815
113	351799	42	7.4060323061055
113	355624	43	2.0304538663495
113	356160	44	1.8333912755969
113	366077	45	0.973
113	375041	46	1.8935190460643
113	378396	47	1.8935190460643
113	379022	48	1.8935190460643
113	382151	49	1.8935190460643
113	388325	50	1.8935190460643
113	399300	51	1.8935190460643
112	21962	3	2.1098289229022
112	22283	4	1.8664304202143
112	44814	5	2.1273513854551
112	60207	6	2.1144779724465
112	66739	7	1.9982335514389
112	67060	8	-3.8115186626199
112	73970	9	-3.7894889466313
112	90662	10	-2.7676857103383
112	113001	11	-0.086783928840887
112	114706	12	1.9510398964421
112	121948	13	2.2337847305206
112	122979	14	2.1123367034108
112	144897	15	1.8907250557211
112	161752	16	2.0151550641516
112	167879	17	-0.68815801814727
112	169306	18	-4.5
112	176780	19	-2.37
112	193004	20	2.1293869310874
112	212237	21	1.227097905098
112	213205	22	0.98867559088161
112	219762	23	1.8095188181708
112	220603	24	1.945423411252
112	240605	25	0.12740049043764
112	253020	26	-0.042648079823703
112	258756	27	-0.0092864238494084
112	259634	28	0.032555507547222
112	264921	29	0.050743685828056
112	278054	30	-0.027629537764005
112	293093	31	0.029351448456291
112	293719	32	-0.010494881814811
112	298515	33	-1.3470556882443
112	299017	34	-4.4721042137415
112	311981	35	-4.2030618403413
112	321435	36	-0.83716727389535
112	325453	37	1.1020646981453
112	326407	38	2.0445666920487
112	330093	39	2.2140805147775
112	337378	40	2.0592929254449
112	351049	41	1.9376759712351
112	351799	42	1.5052619034092
112	355624	43	-0.020173556576482
112	356160	44	-0.074311403501779
112	366077	45	-2.0211440663286
112	375041	46	0
112	378396	47	0
112	379022	48	0
112	382151	49	0
112	388325	50	0
112	399300	51	0
72	15436	2	3.9572520359362
72	21962	3	6.0670809588385
72	22283	4	7.9335113790528
72	44814	5	10.060862764508
72	60207	6	12.175340736954
72	66739	7	14.173574288393
72	67060	8	10.362055625773
72	73970	9	6.572566679142
72	90662	10	3.8048809688037
72	113001	11	3.7180970399628
72	114706	12	5.6691369364049
72	121948	13	7.9029216669255
72	122979	14	10.015258370336
72	144897	15	11.905983426057
72	161752	16	13.921138490209
72	167879	17	13.232980472062
72	169306	18	8.7329804720618
72	176780	19	6.3629804720618
72	193004	20	8.4923674031491
72	212237	21	9.7194653082471
72	213205	22	10.708140899129
72	219762	23	12.517659717299
72	220603	24	14.463083128551
72	240605	25	14.590483618989
72	253020	26	14.547835539165
72	258756	27	14.538549115316
72	259634	28	14.571104622863
72	264921	29	14.621848308691
72	278054	30	14.594218770927
72	293093	31	14.623570219384
72	293719	32	14.613075337569
72	298515	33	13.266019649324
72	299017	34	8.7939154355829
72	311981	35	4.5908535952416
72	321435	36	3.7536863213462
72	325453	37	4.8557510194915
72	326407	38	6.9003177115402
72	330093	39	9.1143982263176
72	337378	40	11.173691151763
72	351049	41	13.111367122998
72	351799	42	14.616629026407
72	355624	43	14.59645546983
72	356160	44	14.522144066329
72	366077	45	12.501
72	375041	46	12.501
72	378396	47	12.501
72	379022	48	12.501
72	382151	49	12.501
72	388325	50	12.501
72	399300	51	12.501
17	3	1	1120.2
17	15436	2	1123.4
17	21962	3	1123.4
17	22283	4	1123.4
17	44814	5	1123.4
17	60207	6	1123.4
17	66739	7	1123.4
17	67060	8	1123.4
17	73970	9	1123.4
17	90662	10	1124.0715965858
17	113001	11	1126.6
17	114706	12	1126.6
17	121948	13	1126.6
17	122979	14	1126.6
17	144897	15	1126.6
17	161752	16	1126.6
17	167879	17	1126.6
17	169306	18	1126.6
17	176780	19	1126.6
17	193004	20	1125.8603542511
17	212237	21	1119.300691806
17	213205	22	1109.3044491363
17	219762	23	1097.5939973077
17	220603	24	1084.0187514804
17	240605	25	1069.4468148632
17	253020	26	1054.8733062178
17	258756	27	1040.2863136178
17	259634	28	1025.7140478629
17	264921	29	1011.130659442
17	278054	30	996.54901053451
17	293093	31	981.97683004587
17	293719	32	967.38373285842
17	298515	33	953.05831425829
17	299017	34	942.25753265172
17	311981	35	935.81408535952
17	321435	36	934.35910909964
17	325453	37	938.29501782649
17	326407	38	944.2317691437
17	330093	39	952.33421986123
17	337378	40	962.57568111219
17	351049	41	974.83697872389
17	351799	42	988.88699337677
17	355624	43	1003.4633775226
17	356160	44	1018.0298552639
17	366077	45	1030.8893128904
17	375041	46	1043.3903128904
17	378396	47	1055.8913128904
17	379022	48	1068.3923128904
17	382151	49	1080.8933128904
17	388325	50	1093.3943128904
17	399300	51	1105.8953128904
16	3	1	1308.3982634569
16	15436	2	1305.2458442845
16	21962	3	1300.1295018289
16	22283	4	1292.9778619393
16	44814	5	1283.8590992582
16	60207	6	1272.6081736894
16	66739	7	1259.2862606708
16	67060	8	1246.9178666062
16	73970	9	1238.9596576644
16	90662	10	1234.3926051213
16	113001	11	1235.6998097438
16	114706	12	1240.5097039782
16	121948	13	1247.4142747749
16	122979	14	1256.5206386196
16	144897	15	1267.5560146237
16	161752	16	1280.5917042889
16	167879	17	1294.7903169752
16	169306	18	1305.5482974473
16	176780	19	1312.2322779194
16	193004	20	1319.7775202422
16	212237	21	1325.9284725991
16	213205	22	1326.6
16	219762	23	1326.6
16	220603	24	1326.6
16	240605	25	1326.6
16	253020	26	1326.6
16	258756	27	1326.6
16	259634	28	1326.6
16	264921	29	1326.6
16	278054	30	1326.6
16	293093	31	1326.6
16	293719	32	1326.6
16	298515	33	1326.6
16	299017	34	1326.6
16	311981	35	1326.6
16	321435	36	1324.0939272669
16	325453	37	1323.4
16	326407	38	1323.4
16	330093	39	1323.4
16	337378	40	1323.4
16	351049	41	1323.4
16	351799	42	1323.4
16	355624	43	1323.4
16	356160	44	1323.4
16	366077	45	1323.4
16	375041	46	1323.4
16	378396	47	1323.4
16	379022	48	1323.4
16	382151	49	1323.4
16	388325	50	1323.4
16	399300	51	1323.4
103	21962	3	4.1038477644905
103	22283	4	4.9203330243367
103	44814	5	5.6673050839691
103	60207	6	7.5558056465568
103	66739	7	7.6530339573962
103	67060	8	4.6701500013212
103	73970	9	1.7545230173544
103	90662	10	2.3428237546156
103	113001	11	1.8898222380951
103	114706	12	1.8385619306495
103	121948	13	2.1313602424186
103	122979	14	2.0278163251313
103	144897	15	2.311936626964
103	161752	16	1.8931957120392
103	167879	17	2.1670734106108
103	169306	18	0.973
103	176780	19	0.973
103	193004	20	6.2230072550402
103	212237	21	4.1571712998325
103	213205	22	0.973
103	219762	23	6.2009941821037
103	220603	24	6.6596411636269
103	240605	25	8.5172388413145
103	253020	26	5.3659833556301
103	258756	27	0.973
103	259634	28	0.973
103	264921	29	3.4250784675697
103	278054	30	5.9287222212761
103	293093	31	6.4093143649565
103	293719	32	8.3516508961017
103	298515	33	5.2527970472034
103	299017	34	0.973
103	311981	35	1.8935190460643
103	321435	36	0.973
103	325453	37	0.973
103	326407	38	8.2299568891565
103	330093	39	8.2330885656297
103	337378	40	1.8935190460643
103	351049	41	1.8935190460643
103	351799	42	1.8935190460643
103	355624	43	1.8935190460643
103	356160	44	1.8935190460643
103	366077	45	1.8935190460643
103	375041	46	1.8935190460643
103	378396	47	0.973
103	379022	48	0.973
103	382151	49	2.3573048590591
103	388325	50	8.0091798749113
103	399300	51	9.1780272479495
103	399956	52	1.8935190460643
103	402836	53	1.8935190460643
103	403494	54	1.8935190460643
103	410599	55	1.8935190460643
103	418025	56	1.8935190460643
103	420899	57	1.8935190460643
103	421413	58	1.8935190460643
102	21962	3	1.8958282717899
102	22283	4	1.8261661019828
102	44814	5	1.7608693524613
102	60207	6	2.0659555923147
102	66739	7	1.771124594477
102	67060	8	0.77250059050234
102	73970	9	-0.084312601366547
102	90662	10	0.086841262788512
102	113001	11	-0.045346074814443
102	114706	12	-0.05895119626075
102	121948	13	0.02705147905508
102	122979	14	-0.0035066807223476
102	144897	15	0.077848725169897
102	161752	16	-0.044298732085153
102	167879	17	0.035465588332153
102	169306	18	-4.2514942439334
102	176780	19	-3.08
102	193004	20	2.1535588928475
102	212237	21	1.0348248749305
102	213205	22	-2.9870761470116
102	219762	23	2.1027745265467
102	220603	24	1.8641601323243
102	240605	25	2.0972352803475
102	253020	26	0.98638737623321
102	258756	27	-3.1665364900545
102	259634	28	-4.5
102	264921	29	1.075792552284
102	278054	30	1.9121992491675
102	293093	31	1.7411206186586
102	293719	32	2.0297509777453
102	298515	33	0.94879485077097
102	299017	34	-1.5373730430189
102	311981	35	0
102	321435	36	-4.464253077037
102	325453	37	-0.24
102	326407	38	2.6
102	330093	39	2.104253077037
102	337378	40	0
102	351049	41	0
102	351799	42	0
102	355624	43	0
102	356160	44	0
102	366077	45	0
102	375041	46	0
102	378396	47	-0.9879005768784
102	379022	48	-4.5
102	382151	49	0.47
102	388325	50	2.6
102	399300	51	2.4179005768784
102	399956	52	0
102	402836	53	0
102	403494	54	0
102	410599	55	0
102	418025	56	0
102	420899	57	0
102	421413	58	0
67	15436	2	3.9936443185378
67	21962	3	5.8894725903277
67	22283	4	7.7156386923105
67	44814	5	9.4765080447718
67	60207	6	11.542463637087
67	66739	7	13.313588231564
67	67060	8	14.086088822066
67	73970	9	14.001776220699
67	90662	10	14.088617483488
67	113001	11	14.043271408673
67	114706	12	13.984320212413
67	121948	13	14.011371691468
67	122979	14	14.007865010745
67	144897	15	14.085713735915
67	161752	16	14.04141500383
67	167879	17	14.076880592162
67	169306	18	9.8253863482288
67	176780	19	6.7453863482288
67	193004	20	8.8989452410763
67	212237	21	9.9337701160068
67	213205	22	6.9466939689953
67	219762	23	9.049468495542
67	220603	24	10.913628627866
67	240605	25	13.010863908214
67	253020	26	13.997251284447
67	258756	27	10.830714794393
67	259634	28	6.3307147943926
67	264921	29	7.4065073466766
67	278054	30	9.318706595844
67	293093	31	11.059827214503
67	293719	32	13.089578192248
67	298515	33	14.038373043019
67	299017	34	12.501
67	311981	35	12.501
67	321435	36	8.036746922963
67	325453	37	7.796746922963
67	326407	38	10.396746922963
67	330093	39	12.501
67	337378	40	12.501
67	351049	41	12.501
67	351799	42	12.501
67	355624	43	12.501
67	356160	44	12.501
67	366077	45	12.501
67	375041	46	12.501
67	378396	47	11.513099423122
67	379022	48	7.0130994231216
67	382151	49	7.4830994231216
67	388325	50	10.083099423122
67	399300	51	12.501
67	399956	52	12.501
67	402836	53	12.501
67	403494	54	12.501
67	410599	55	12.501
67	418025	56	12.501
67	420899	57	12.501
67	421413	58	12.501
7	3	1	1236.1947677444
7	15436	2	1238.9999768568
7	21962	3	1243.5125975074
7	22283	4	1249.6670279454
7	44814	5	1255.9812523873
7	60207	6	1265.4789108266
7	66739	7	1276.6893639367
7	67060	8	1289.1481306181
7	73970	9	1301.6874692724
7	90662	10	1314.2430269004
7	113001	11	1326.7975932348
7	114706	12	1339.3506082059
7	121948	13	1351.893591598
7	122979	14	1364.4424676792
7	144897	15	1376.9972364999
7	161752	16	1389.5443154914
7	167879	17	1402.1127562974
7	169306	18	1412.688268897
7	176780	19	1419.4207156668
7	193004	20	1423.9292721494
7	212237	21	1426.0784946694
7	213205	22	1426.4666030998
7	219762	23	1426.6
7	220603	24	1429.8
7	240605	25	1429.8
7	253020	26	1429.8
7	258756	27	1429.8
7	259634	28	1429.8
7	264921	29	1429.8
7	278054	30	1429.8
7	293093	31	1429.8
7	293719	32	1429.8
7	298515	33	1429.8
7	299017	34	1429.8
7	311981	35	1429.8
7	321435	36	1429.8
7	325453	37	1429.8069657886
7	326407	38	1430.1913789533
7	330093	39	1432.6494431295
7	337378	40	1440.1592049476
7	351049	41	1448.9986558396
7	351799	42	1457.8381067316
7	355624	43	1466.6775576237
7	356160	44	1475.5170085157
7	366077	45	1484.3564594077
7	375041	46	1493.1959102998
7	378396	47	1501.9212564226
7	379022	48	1508.3120920364
7	382151	49	1512.9124427795
7	388325	50	1518.9134703114
7	399300	51	1528.0512564794
7	399956	52	1540.5044391924
7	402836	53	1553.0054391924
7	403494	54	1565.5064391924
7	410599	55	1578.0074391924
7	418025	56	1590.5084391924
7	420899	57	1603.0094391924
7	421413	58	1615.5104391924
6	3	1	1025.2323838722
6	15436	2	1026.6349884284
6	21962	3	1028.8912987537
6	22283	4	1031.9685139727
6	44814	5	1038.7006261936
6	60207	6	1043.4494554133
6	66739	7	1049.0546819684
6	67060	8	1055.284065309
6	73970	9	1061.5537346362
6	90662	10	1067.8315134502
6	113001	11	1074.1087966174
6	114706	12	1080.3853041029
6	121948	13	1086.656795799
6	122979	14	1092.9312338396
6	144897	15	1099.20861825
6	161752	16	1105.4821577457
6	167879	17	1111.7663781487
6	169306	18	1117.0541344485
6	176780	19	1120.4842010526
6	193004	20	1126.8907846383
6	212237	21	1136.5126405608
6	213205	22	1144.2611701494
6	219762	23	1152.472165595
6	220603	24	1162.5147892584
6	240605	25	1174.541954828
6	253020	26	1188.4024908454
6	258756	27	1201.1024643649
6	259634	28	1209.4581791593
6	264921	29	1215.8524764348
6	278054	30	1224.3223755772
6	293093	31	1234.5364047845
6	293719	32	1246.7242234726
6	298515	33	1260.5865713951
6	299017	34	1273.278783308
6	311981	35	1285.779783308
6	321435	36	1295.841530231
6	325453	37	1302.8941447154
6	326407	38	1312.1123990993
6	330093	39	1323.5668000608
6	337378	40	1333.3692049476
6	351049	41	1342.2086558396
6	351799	42	1351.0481067316
6	355624	43	1359.8875576237
6	356160	44	1368.7270085157
6	366077	45	1377.5664594077
6	375041	46	1386.4059102998
6	378396	47	1395.1312564226
6	379022	48	1401.5220920364
6	382151	49	1406.1502626408
6	388325	50	1412.7400348329
6	399300	51	1419.3617402828
6	399956	52	1420.2
6	402836	53	1420.2
6	403494	54	1420.2
6	410599	55	1420.2
6	418025	56	1420.2
6	420899	57	1420.2
6	421413	58	1420.2
157	21962	3	4.298195818598
157	22283	4	5.1957136149131
157	44814	5	6.3250026686606
157	60207	6	7.4151820148089
157	66739	7	8.1508637476348
157	67060	8	9.7905500450948
157	73970	9	3.2318150313936
157	90662	10	2.2992455771839
157	113001	11	0.973
157	114706	12	0.973
157	121948	13	0.973
157	122979	14	6.1110801550206
157	144897	15	7.785070430423
157	161752	16	8.5590924147961
157	167879	17	8.8782495407707
157	169306	18	0.973
157	176780	19	0.973
157	193004	20	0.973
157	212237	21	5.8906579758664
157	213205	22	6.5322673383907
157	219762	23	4.7751474251359
157	220603	24	8.023374718202
157	240605	25	9.0895258106641
157	253020	26	5.8291362367228
157	258756	27	0.973
157	259634	28	0.973
157	264921	29	0.973
157	278054	30	6.6515665582944
157	293093	31	6.7617283780427
157	293719	32	7.4572358820148
157	298515	33	8.9055445357767
157	299017	34	8.2859896288681
157	311981	35	2.3053709690827
157	321435	36	2.3572257131738
157	325453	37	0.973
157	326407	38	0.973
157	330093	39	0.973
157	337378	40	6.2561467631095
157	351049	41	6.8817905767703
157	351799	42	7.682697898695
157	355624	43	8.9232647918943
157	356160	44	7.409355572385
157	366077	45	2.150917454381
157	375041	46	0.973
157	378396	47	0.973
157	379022	48	0.973
157	382151	49	3.8459913322154
157	388325	50	1.5881280383613
157	399300	51	3.6275648078667
157	399956	52	6.9420219285173
157	402836	53	8.5983512535908
157	403494	54	9.7031892930474
157	410599	55	4.3660470769963
157	418025	56	2.49247365187
157	420899	57	2.0609251095621
157	421413	58	2.271959057382
156	21962	3	1.9916549410904
156	22283	4	1.9175892734807
156	44814	5	1.9548238710011
156	60207	6	1.9580550425174
156	66739	7	1.8619896020181
156	67060	8	2.0009263668209
156	73970	9	0.25450336199889
156	90662	10	0.011469485736452
156	113001	11	-1.6049413270794
156	114706	12	-4.4640347286979
156	121948	13	-3.08
156	122979	14	2.099103343056
156	144897	15	2.2374466699269
156	161752	16	2.0715716128913
156	167879	17	1.8519467456918
156	169306	18	-1.0746778374559
156	176780	19	-4.4741273362915
156	193004	20	-3.79
156	212237	21	2.2586376469093
156	213205	22	2.0114840976219
156	219762	23	1.120099645212
156	220603	24	1.9323532076483
156	240605	25	1.924621525628
156	253020	26	0.93354619081945
156	258756	27	-0.82046410536626
156	259634	28	-4.482632912746
156	264921	29	-4.5
156	278054	30	2.4567175604124
156	293093	31	1.9811177619779
156	293719	32	1.8633420269843
156	298515	33	1.970226248384
156	299017	34	1.5694039253162
156	311981	35	0.012945415335707
156	321435	36	0.025593618503772
156	325453	37	-1.7929682405917
156	326407	38	-4.4970999836566
156	330093	39	-3.08
156	337378	40	2.1937729835999
156	351049	41	1.9756692701206
156	351799	42	1.8898085079412
156	355624	43	1.9366667536041
156	356160	44	1.3407311653987
156	366077	45	-0.026213559415192
156	375041	46	-2.4310561123432
156	378396	47	-4.5
156	379022	48	-1.6599735517854
156	382151	49	1.1157124888573
156	388325	50	0.0069570109341281
156	399300	51	0.88446442771005
156	399956	52	1.9031371978554
156	402836	53	2.0660126006394
156	403494	54	2.0331706068991
156	410599	55	0.55277419991041
156	418025	56	0.061628756397402
156	420899	57	-0.049204086738172
156	421413	58	0.005655730082653
94	15436	2	4.0062434990116
94	21962	3	5.997898440102
94	22283	4	7.9154877135827
94	44814	5	9.8703115845838
94	60207	6	11.828366627101
94	66739	7	13.690356229119
94	67060	8	15.69128259594
94	73970	9	15.945785957939
94	90662	10	15.957255443676
94	113001	11	14.352314116596
94	114706	12	9.8882793878982
94	121948	13	6.8082793878982
94	122979	14	8.9073827309543
94	144897	15	11.144829400881
94	161752	16	13.216401013772
94	167879	17	15.068347759464
94	169306	18	13.993669922008
94	176780	19	9.5195425857168
94	193004	20	5.7295425857168
94	212237	21	7.9881802326262
94	213205	22	9.9996643302481
94	219762	23	11.11976397546
94	220603	24	13.052117183108
94	240605	25	14.976738708736
94	253020	26	15.910284899556
94	258756	27	15.08982079419
94	259634	28	10.607187881444
94	264921	29	6.1071878814435
94	278054	30	8.5639054418559
94	293093	31	10.545023203834
94	293719	32	12.408365230818
94	298515	33	14.378591479202
94	299017	34	15.947995404518
94	311981	35	15.960940819854
94	321435	36	15.986534438358
94	325453	37	14.193566197766
94	326407	38	9.6964662141095
94	330093	39	6.6164662141095
94	337378	40	8.8102391977094
94	351049	41	10.78590846783
94	351799	42	12.675716975771
94	355624	43	14.612383729375
94	356160	44	15.953114894774
94	366077	45	15.926901335359
94	375041	46	13.495845223016
94	378396	47	8.9958452230156
94	379022	48	7.3358716712301
94	382151	49	8.4515841600874
94	388325	50	8.4585411710215
94	399300	51	9.3430055987316
94	399956	52	11.246142796587
94	402836	53	13.312155397226
94	403494	54	15.345326004125
94	410599	55	15.898100204036
94	418025	56	15.959728960433
94	420899	57	15.910524873695
94	421413	58	15.916180603778
61	3	1	616.7086213541
61	15436	2	614.5620261924
61	21962	3	610.95329886237
61	22283	4	603.72583595713
61	44814	5	597.36187293662
61	60207	6	589.62444481235
61	66739	7	580.56411541592
61	67060	8	570.1117710565
61	73970	9	558.84660092904
61	90662	10	547.57363317881
61	113001	11	536.80640078659
61	114706	12	529.82176690337
61	121948	13	527.1148439173
61	122979	14	526.6
61	144897	15	526.6
61	161752	16	526.6
61	167879	17	526.6
61	169306	18	526.6
61	176780	19	526.6
61	193004	20	526.6
61	212237	21	526.09355279684
61	213205	22	521.00720448618
61	219762	23	510.62315200726
61	220603	24	498.47075367584
61	240605	25	484.41921013873
61	253020	26	468.67692912421
61	258756	27	452.85412704932
61	259634	28	440.22919330671
61	264921	29	432.09700542526
61	278054	30	424.84005283462
61	293093	31	417.10501455027
61	293719	32	406.66396822025
61	298515	33	397.09031020738
61	299017	34	386.25751246186
61	311981	35	374.98969558668
61	321435	36	363.71480175888
61	325453	37	352.76892693655
61	326407	38	344.48088905741
61	330093	39	339.22398168935
61	337378	40	333.59139550881
61	351049	41	326.31262976433
61	351799	42	316.65359058386
61	355624	43	302.98844551812
61	356160	44	287.4703359811
61	366077	45	271.51751024812
61	375041	46	256.39785104042
61	378396	47	245.3770058174
61	379022	48	238.14613679099
61	382151	49	230.04748558444
61	388325	50	229.68120334486
61	399300	51	235.51743084873
61	399956	52	242.85613547237
61	402836	53	251.61503497617
61	403494	54	261.82455612751
61	410599	55	273.04391179813
61	418025	56	284.3031417724
61	420899	57	295.571401179
61	421413	58	306.8231114779
60	3	1	440.0813786459
60	15436	2	442.2279738076
60	21962	3	445.83670113763
60	22283	4	448.54416404287
60	44814	5	454.90812706338
60	60207	6	462.64555518765
60	66739	7	471.70588458408
60	67060	8	482.1582289435
60	73970	9	493.42339907096
60	90662	10	504.69636682119
60	113001	11	515.91952739399
60	114706	12	525.51411722732
60	121948	13	532.57893743944
60	122979	14	540.58128491161
60	144897	15	550.73374049525
60	161752	16	562.95652443781
60	167879	17	577.22271975746
60	169306	18	592.45364996968
60	176780	19	603.9981925554
60	193004	20	611.11373514111
60	212237	21	618.14513042209
60	213205	22	625.15567730829
60	219762	23	626.6
60	220603	24	626.6
60	240605	25	626.6
60	253020	26	626.6
60	258756	27	626.6
60	259634	28	626.6
60	264921	29	626.6
60	278054	30	625.04014132157
60	293093	31	619.31410754906
60	293719	32	613.45396822025
60	298515	33	603.88031020738
60	299017	34	593.04751246186
60	311981	35	581.77969558668
60	321435	36	570.50480175888
60	325453	37	559.55892693655
60	326407	38	551.27088905741
60	330093	39	546.01398168935
60	337378	40	540.53213968846
60	351049	41	533.8849243202
60	351799	42	527.26832829652
60	355624	43	526.6
60	356160	44	526.6
60	366077	45	526.6
60	375041	46	526.6
60	378396	47	526.6
60	379022	48	526.6
60	382151	49	525.50892684278
60	388325	50	518.68332464358
60	399300	51	512.22256915127
60	399956	52	504.88386452763
60	402836	53	496.12496502383
60	403494	54	485.91544387249
60	410599	55	474.69608820187
60	418025	56	463.4368582276
60	420899	57	452.168598821
60	421413	58	440.9168885221
123	21962	3	3.9113841411907
123	22283	4	5.0530143973736
123	44814	5	6.5052438937732
123	60207	6	7.5686212654172
123	66739	7	8.0000838293606
123	67060	8	2.0976390955666
123	73970	9	1.8942619369243
123	90662	10	2.2373826349309
123	113001	11	1.7320978816475
123	114706	12	2.1421072656775
123	121948	13	1.8843239545703
123	122979	14	2.2986572947861
123	144897	15	1.6793635964004
123	161752	16	0.973
123	167879	17	0.973
123	169306	18	4.9770174215999
123	176780	19	3.2249528952769
123	193004	20	1.4584543190746
123	212237	21	1.8216418369391
123	213205	22	6.9122700671832
123	219762	23	7.6127198836953
123	220603	24	4.5043252169538
123	240605	25	1.7825656241021
123	253020	26	2.0452168506001
123	258756	27	2.0466836601325
123	259634	28	1.8908482269858
123	264921	29	2.0719634640956
123	278054	30	2.1465293364247
123	293093	31	1.9689525551534
123	293719	32	1.8433813187899
123	298515	33	2.1550964973652
123	299017	34	0.973
123	311981	35	0.973
123	321435	36	0.973
123	325453	37	5.6513355388201
123	326407	38	5.9903806517972
123	330093	39	7.3609722772297
123	337378	40	5.3242833112233
123	351049	41	2.2610100657399
123	351799	42	1.8728384335932
123	355624	43	1.8611535375404
123	356160	44	2.1783202039451
123	366077	45	1.9283921186516
123	375041	46	1.9608737067813
123	378396	47	2.0811453207308
123	379022	48	2.0194433181832
123	382151	49	2.0199561475042
123	388325	50	2.1003407907756
123	399300	51	1.8210481548474
123	399956	52	2.1154406177119
123	402836	53	1.790981078494
123	403494	54	1.987416529194
123	410599	55	2.0394887108398
123	418025	56	1.9428852336065
123	420899	57	2.3225381163168
123	421413	58	1.9407613560622
123	424311	59	2.0969554896143
122	21962	3	1.7875950574805
[...]
145	351799	42	4.8249216670981
145	355624	43	2.0217374628422
145	356160	44	1.7527773236071
145	366077	45	1.9011369190166
145	375041	46	1.9699067532197
145	378396	47	2.1387652237324
145	379022	48	1.6372650346068
145	382151	49	2.2191012407665
145	388325	50	1.931287957354
145	399300	51	1.9485493058995
145	399956	52	1.7789173044798
145	402836	53	2.1983650575523
145	403494	54	0.973
145	410599	55	0.973
145	418025	56	0.973
145	420899	57	0.973
145	421413	58	1.5936437708876
145	424311	59	5.9283260872493
145	427978	60	7.7686332085746
145	435283	61	6.8411407950218
145	435623	62	2.1828571388964
145	437798	63	0.973
145	438232	64	0.973
145	442804	65	0.973
145	448330	66	0.973
145	450239	67	0.973
145	450390	68	0.973
145	451905	69	0.973
145	454087	70	0.973
145	459130	71	0.973
145	459261	72	0.973
145	460697	73	0.973
145	460943	74	0.973
145	463682	75	0.973
145	466956	76	0.973
145	468122	77	0.973
145	468368	78	0.973
145	469534	79	0.973
145	470572	80	0.973
145	474195	81	0.973
145	474306	82	0.973
145	475326	83	0.973
145	475427	84	0.973
145	477124	85	0.973
145	479481	86	0.973
145	480237	87	0.973
145	480459	88	0.973
145	481212	89	0.973
145	482349	90	0.973
145	485232	91	0.973
145	485439	92	0.973
145	486121	93	0.973
145	486325	94	0.973
145	487468	95	0.973
145	489445	96	0.973
145	490069	97	0.973
145	490214	98	0.973
145	490810	99	0.973
145	491257	100	0.973
145	493290	101	0.973
145	493474	102	0.973
145	493927	103	0.973
145	493998	104	0.973
145	494821	105	0.973
145	496070	106	0.973
145	496389	107	0.973
145	496450	108	0.973
145	496812	109	0.973
145	497166	110	0.973
145	498296	111	0.973
145	498357	112	0.973
145	498675	113	0.973
145	498778	114	0.973
145	499350	115	0.973
145	500129	116	0.973
145	500490	117	0.973
145	500541	118	0.973
145	500778	119	0.973
145	501047	120	0.973
145	501766	121	0.973
145	501817	122	0.973
145	502053	123	0.973
145	502106	124	0.973
145	502655	125	0.973
145	503224	126	0.973
145	503496	127	0.973
145	503618	128	0.973
145	503914	129	0.973
145	504219	130	0.973
145	504942	131	0.973
145	505056	132	0.973
145	505293	133	0.973
145	505344	134	0.973
145	505831	135	0.973
145	506333	136	0.973
145	506604	137	1.9966421123598
145	506655	138	3.355836979447
145	506926	139	4.1939650797677
145	507231	140	5.3341583718741
145	507845	141	5.6947417688358
145	507932	142	6.7427404702377
145	508167	143	6.9021965358324
145	508219	144	1.9409188705114
145	508743	145	1.7444266852812
145	509173	146	2.1688130509545
145	509479	147	1.776969265318
145	509599	148	1.8137493977243
145	509815	149	2.2563777680217
145	509947	150	1.8581194189254
145	510432	151	1.759902146204
145	510473	152	1.9153976785288
145	510638	153	2.2721397898718
145	510679	154	1.6603783477279
145	510995	155	2.0011846195746
145	511414	156	1.845106634378
145	511579	157	2.1336759573262
145	511680	158	1.7779417002893
145	511844	159	2.2102884036559
145	511973	160	1.6865925719761
145	512513	161	2.0196603082109
145	512554	162	0.973
145	512659	163	0.973
145	512680	164	0.973
145	512719	165	2.6890343166663
145	512783	166	5.3964787254848
145	512809	167	6.9894480606263
145	512820	168	7.8380872566297
145	512846	169	3.0598362775919
145	512857	170	2.2070596154588
145	512923	171	1.9594624007439
144	21962	3	1.9445026849164
144	22283	4	1.984703754806
144	44814	5	2.0533705179603
144	60207	6	1.8724138661451
144	66739	7	-0.51284483709303
144	67060	8	-4.478602455593
144	73970	9	-3.3740751448825
144	90662	10	-0.005428757525515
144	113001	11	1.4016613111948
144	114706	12	2.0176381052146
144	121948	13	1.7926311732735
144	122979	14	1.9867729847995
144	144897	15	2.0482357043261
144	161752	16	-0.78566914111023
144	167879	17	-4.4395958659559
144	169306	18	-0.24
144	176780	19	1.9638806027453
144	193004	20	1.8117638127715
144	212237	21	1.9280148080457
144	213205	22	0.14550136557983
144	219762	23	-0.0074154043220922
144	220603	24	-0.019993431109469
144	240605	25	-4.2933531275885
144	253020	26	-1.6417445219269
144	258756	27	2.234932280283
144	259634	28	1.9471207439178
144	264921	29	1.6734064808919
144	278054	30	0.098845895617268
144	293093	31	0.016373162483797
144	293719	32	-0.0017367215128612
144	298515	33	0.00077476969920198
144	299017	34	-0.050991734466516
144	311981	35	-2.6277515674501
144	321435	36	-0.5228290031005
144	325453	37	-0.78107949042629
144	326407	38	-3.08
144	330093	39	2.2774319042428
144	337378	40	1.8752903137216
144	351049	41	1.9463244947861
144	351799	42	0.91861623186275
144	355624	43	0.024575498090124
144	356160	44	-0.05943963331636
144	366077	45	-0.011693065646105
144	375041	46	0.0099884687247691
144	378396	47	0.061774586059618
144	379022	48	-0.095533102336338
144	382151	49	0.087617854650597
144	388325	50	-0.0038576838490556
144	399300	51	0.0015886529884295
144	399956	52	-0.05105671192752
144	402836	53	0.080043339983094
144	403494	54	-0.74915007952479
144	410599	55	-3.8595450997366
144	418025	56	-0.95
144	420899	57	-0.32417555301191
144	421413	58	0.056943060951307
144	424311	59	1.9444323606766
144	427978	60	2.1813164022239
144	435283	61	1.5735739431435
144	435623	62	0.076915800836868
144	437798	63	-0.79534229397442
144	438232	64	-4.5
144	442804	65	-4.5
144	448330	66	-3.2205241239679
144	450239	67	0
144	450390	68	0
144	451905	69	0
144	454087	70	0
144	459130	71	0
144	459261	72	0
144	460697	73	0
144	460943	74	0
144	463682	75	0
144	466956	76	0
144	468122	77	0
144	468368	78	0
144	469534	79	0
144	470572	80	0
144	474195	81	0
144	474306	82	0
144	475326	83	0
144	475427	84	0
144	477124	85	0
144	479481	86	0
144	480237	87	0
144	480459	88	0
144	481212	89	0
144	482349	90	0
144	485232	91	0
144	485439	92	0
144	486121	93	0
144	486325	94	0
144	487468	95	0
144	489445	96	0
144	490069	97	0
144	490214	98	0
144	490810	99	0
144	491257	100	0
144	493290	101	0
144	493474	102	0
144	493927	103	0
144	493998	104	0
144	494821	105	0
144	496070	106	0
144	496389	107	0
144	496450	108	0
144	496812	109	0
144	497166	110	0
144	498296	111	0
144	498357	112	0
144	498675	113	0
144	498778	114	0
144	499350	115	0
144	500129	116	0
144	500490	117	0
144	500541	118	0
144	500778	119	0
144	501047	120	0
144	501766	121	0
144	501817	122	0
144	502053	123	0
144	502106	124	0
144	502655	125	0
144	503224	126	0
144	503496	127	0
144	503618	128	0
144	503914	129	0
144	504219	130	0
144	504942	131	0
144	505056	132	0
144	505293	133	0
144	505344	134	0
144	505831	135	0
144	506333	136	0
144	506604	137	1.82
144	506655	138	2.1444229703127
144	506926	139	1.9500297338446
144	507231	140	1.99258192854
144	507845	141	1.7368210452818
144	507932	142	1.7932497579069
144	508167	143	1.5810625440377
144	508219	144	-0.00027410798007566
144	508743	145	-0.061336833862589
144	509173	146	0.071983735051473
144	509479	147	-0.051456889691764
144	509599	148	-0.038640693584457
144	509815	149	0.099513897940051
144	509947	150	-0.026484207946343
144	510432	151	-0.056343649299814
144	510473	152	-0.0063506614067599
144	510638	153	0.10396341930143
144	510679	154	-0.088435922337229
144	510995	155	0.020004675090313
144	511414	156	-0.02905713587068
144	511579	157	0.061216002951841
144	511680	158	-0.050843289378099
144	511844	159	0.084401200325228
144	511973	160	-0.080179696432316
144	512513	161	0.025550487989095
144	512554	162	-1.5948590029505
144	512659	163	-4.4129539049777
144	512680	164	-0.96207367493031
144	512719	165	0.74934684582055
144	512783	166	1.8367777019553
144	512809	167	2.0454789216164
144	512820	168	1.9528047310701
144	512846	169	0.35919758186835
144	512857	170	0.083287260525394
144	512923	171	0.0044395121629357
88	15436	2	3.9444516137408
88	21962	3	5.8889542986572
88	22283	4	7.8736580534631
88	44814	5	9.9270285714234
88	60207	6	11.799442437568
88	66739	7	11.286597600475
88	67060	8	6.8079951448825
88	73970	9	3.43392
88	90662	10	3.4284912424745
88	113001	11	4.8301525536693
88	114706	12	6.8477906588838
88	121948	13	8.6404218321574
88	122979	14	10.627194816957
88	144897	15	12.675430521283
88	161752	16	11.889761380173
88	167879	17	7.4501655142168
88	169306	18	7.2101655142168
88	176780	19	9.1740461169621
88	193004	20	10.985809929734
88	212237	21	12.913824737779
88	213205	22	13.059326103359
88	219762	23	13.051910699037
88	220603	24	13.031917267928
88	240605	25	8.7385641403392
88	253020	26	7.0968196184122
88	258756	27	9.3317518986952
88	259634	28	11.278872642613
88	264921	29	12.952279123505
88	278054	30	13.051125019122
88	293093	31	13.067498181606
88	293719	32	13.065761460093
88	298515	33	13.066536229792
88	299017	34	13.015544495326
88	311981	35	10.387792927876
88	321435	36	9.8649639247751
88	325453	37	9.0838844343488
88	326407	38	6.0038844343488
88	330093	39	8.2813163385916
88	337378	40	10.156606652313
88	351049	41	12.102931147099
88	351799	42	13.021547378962
88	355624	43	13.046122877052
88	356160	44	12.986683243736
88	366077	45	12.97499017809
88	375041	46	12.984978646815
88	378396	47	13.046753232874
88	379022	48	12.951220130538
88	382151	49	13.038837985188
88	388325	50	13.034980301339
88	399300	51	13.036568954328
88	399956	52	12.9855122424
88	402836	53	13.065555582383
88	403494	54	12.316405502859
88	410599	55	8.456860403122
88	418025	56	7.506860403122
88	420899	57	7.1826848501101
88	421413	58	7.2396279110614
88	424311	59	9.184060271738
88	427978	60	11.365376673962
88	435283	61	12.938950617105
88	435623	62	13.015866417942
88	437798	63	12.220524123968
88	438232	64	7.7205241239679
88	442804	65	3.2205241239679
88	448330	66	0
88	450239	67	0
88	450390	68	0
88	451905	69	0
88	454087	70	0
88	459130	71	0
88	459261	72	0
88	460697	73	0
88	460943	74	0
88	463682	75	0
88	466956	76	0
88	468122	77	0
88	468368	78	0
88	469534	79	0
88	470572	80	0
88	474195	81	0
88	474306	82	0
88	475326	83	0
88	475427	84	0
88	477124	85	0
88	479481	86	0
88	480237	87	0
88	480459	88	0
88	481212	89	0
88	482349	90	0
88	485232	91	0
88	485439	92	0
88	486121	93	0
88	486325	94	0
88	487468	95	0
88	489445	96	0
88	490069	97	0
88	490214	98	0
88	490810	99	0
88	491257	100	0
88	493290	101	0
88	493474	102	0
88	493927	103	0
88	493998	104	0
88	494821	105	0
88	496070	106	0
88	496389	107	0
88	496450	108	0
88	496812	109	0
88	497166	110	0
88	498296	111	0
88	498357	112	0
88	498675	113	0
88	498778	114	0
88	499350	115	0
88	500129	116	0
88	500490	117	0
88	500541	118	0
88	500778	119	0
88	501047	120	0
88	501766	121	0
88	501817	122	0
88	502053	123	0
88	502106	124	0
88	502655	125	0
88	503224	126	0
88	503496	127	0
88	503618	128	0
88	503914	129	0
88	504219	130	0
88	504942	131	0
88	505056	132	0
88	505293	133	0
88	505344	134	0
88	505831	135	0
88	506333	136	0
88	506604	137	1.82
88	506655	138	3.9644229703127
88	506926	139	5.9144527041573
88	507231	140	7.9070346326973
88	507845	141	9.6438556779791
88	507932	142	11.437105435886
88	508167	143	13.018167979924
88	508219	144	13.017893871944
88	508743	145	12.956557038081
88	509173	146	13.028540773133
88	509479	147	12.977083883441
88	509599	148	12.938443189856
88	509815	149	13.037957087796
88	509947	150	13.01147287985
88	510432	151	12.95512923055
88	510473	152	12.948778569143
88	510638	153	13.052741988445
88	510679	154	12.964306066108
88	510995	155	12.984310741198
88	511414	156	12.955253605327
88	511579	157	13.016469608279
88	511680	158	12.965626318901
88	511844	159	13.050027519226
88	511973	160	12.969847822794
88	512513	161	12.995398310783
88	512554	162	11.400539307832
88	512659	163	6.9875854028548
88	512680	164	6.0255117279245
88	512719	165	6.774858573745
88	512783	166	8.6116362757003
88	512809	167	10.657115197317
88	512820	168	12.609919928387
88	512846	169	12.969117510255
88	512857	170	13.052404770781
88	512923	171	13.056844282943
49	3	1	1420.2
49	15436	2	1423.4
49	21962	3	1423.4
49	22283	4	1423.4
49	44814	5	1423.4
49	60207	6	1423.4
49	66739	7	1423.4
49	67060	8	1423.4
49	73970	9	1423.5886812597
49	90662	10	1426.0752608107
49	113001	11	1426.6
49	114706	12	1426.6
49	121948	13	1426.6
49	122979	14	1429.8
49	144897	15	1429.8
49	161752	16	1429.8
49	167879	17	1429.8
49	169306	18	1429.8
49	176780	19	1429.8
49	193004	20	1429.8
49	212237	21	1429.8
49	213205	22	1429.8
49	219762	23	1429.8
49	220603	24	1429.8
49	240605	25	1429.8
49	253020	26	1429.8
49	258756	27	1430.0837769916
49	259634	28	1431.4936592495
49	264921	29	1435.1989864556
49	278054	30	1444.3970114245
49	293093	31	1453.5959306402
49	293719	32	1462.7958618309
49	298515	33	1471.9807333923
49	299017	34	1481.1760129882
49	311981	35	1489.5332396367
49	321435	36	1496.45676754
49	325453	37	1503.5027113402
49	326407	38	1508.326462436
49	330093	39	1513.3383829241
49	337378	40	1519.2783118094
49	351049	41	1524.9107196556
49	351799	42	1526.6
49	355624	43	1526.6
49	356160	44	1529.8
49	366077	45	1529.8
49	375041	46	1529.8
49	378396	47	1529.8
49	379022	48	1529.8
49	382151	49	1529.8
49	388325	50	1529.8
49	399300	51	1529.8
49	399956	52	1529.8
49	402836	53	1529.8
49	403494	54	1529.8
49	410599	55	1529.8
49	418025	56	1529.8
49	420899	57	1533.6721745812
49	421413	58	1540.7121045534
49	424311	59	1548.9748040131
49	427978	60	1559.3510045696
49	435283	61	1571.6869116741
49	435623	62	1584.7101901763
49	437798	63	1597.6037251656
49	438232	64	1607.3492492896
49	442804	65	1612.5947734135
49	448330	66	1613.5989999059
49	450239	67	1613.5989999059
49	450390	68	1613.5989999059
49	451905	69	1613.6829999059
49	454087	70	1613.6829999059
49	459130	71	1613.6829999059
49	459261	72	1613.6829999059
49	460697	73	1613.6829999059
49	460943	74	1613.6829999059
49	463682	75	1613.6829999059
49	466956	76	1613.6829999059
49	468122	77	1613.6829999059
49	468368	78	1613.6829999059
49	469534	79	1613.6829999059
49	470572	80	1613.6829999059
49	474195	81	1613.6829999059
49	474306	82	1613.6829999059
49	475326	83	1613.6829999059
49	475427	84	1613.6829999059
49	477124	85	1613.6829999059
49	479481	86	1613.6829999059
49	480237	87	1613.6829999059
49	480459	88	1613.6829999059
49	481212	89	1613.6829999059
49	482349	90	1613.6829999059
49	485232	91	1613.6829999059
49	485439	92	1613.6829999059
49	486121	93	1613.6829999059
49	486325	94	1613.6829999059
49	487468	95	1613.6829999059
49	489445	96	1613.6829999059
49	490069	97	1613.6829999059
49	490214	98	1613.6829999059
49	490810	99	1613.6829999059
49	491257	100	1613.6829999059
49	493290	101	1613.6829999059
49	493474	102	1613.6829999059
49	493927	103	1613.6829999059
49	493998	104	1613.6829999059
49	494821	105	1613.6829999059
49	496070	106	1613.6829999059
49	496389	107	1613.6829999059
49	496450	108	1613.6829999059
49	496812	109	1613.6829999059
49	497166	110	1613.6829999059
49	498296	111	1613.6829999059
49	498357	112	1613.6829999059
49	498675	113	1613.6829999059
49	498778	114	1613.6829999059
49	499350	115	1613.6829999059
49	500129	116	1613.6829999059
49	500490	117	1613.6829999059
49	500541	118	1613.6829999059
49	500778	119	1613.6829999059
49	501047	120	1613.6829999059
49	501766	121	1613.6829999059
49	501817	122	1613.6829999059
49	502053	123	1613.6829999059
49	502106	124	1613.6829999059
49	502655	125	1613.6829999059
49	503224	126	1613.6829999059
49	503496	127	1613.6829999059
49	503618	128	1613.6829999059
49	503914	129	1613.6829999059
49	504219	130	1613.6829999059
49	504942	131	1613.6829999059
49	505056	132	1613.6829999059
49	505293	133	1613.6829999059
49	505344	134	1613.6829999059
49	505831	135	1613.6829999059
49	506333	136	1613.6829999059
49	506604	137	1614.4109999059
49	506655	138	1617.471169889
49	506926	139	1622.4744683384
49	507231	140	1629.5149261316
49	507845	141	1638.346535215
49	507932	142	1649.0054261015
49	508167	143	1661.4556186193
49	508219	144	1674.4541854897
49	508743	145	1687.4465345462
49	509173	146	1700.4340936905
49	509479	147	1713.4324496575
49	509599	148	1726.4136484719
49	509815	149	1739.4412101866
49	509947	150	1752.4485489559
49	510432	151	1765.4710094343
49	510473	152	1778.4639557962
49	510638	153	1791.4733447212
49	510679	154	1804.4777732398
49	510995	155	1817.4839449818
49	511414	156	1830.4927636391
49	511579	157	1843.5078678388
49	511680	158	1856.5058679765
49	511844	159	1869.5237699343
49	511973	160	1882.5258338412
49	512513	161	1895.5378279933
49	512554	162	1908.1822871234
49	512659	163	1917.1434651182
49	512680	164	1922.4774541805
49	512719	165	1923.4
49	512783	166	1923.4
49	512809	167	1923.4
49	512820	168	1923.4
49	512846	169	1923.4
49	512857	170	1923.4
49	512923	171	1923.4
48	3	1	1208.433899013
48	15436	2	1205.2768028171
48	21962	3	1200.2640357088
48	22283	4	1193.3086440743
48	44814	5	1184.2726065503
48	60207	6	1173.3280739153
48	66739	7	1161.0783763486
48	67060	8	1152.250623179
48	73970	9	1146.9969781104
48	90662	10	1146.492891216
48	113001	11	1150.2774197633
48	114706	12	1156.2574908178
48	121948	13	1164.1240452575
48	122979	14	1173.8594312457
48	144897	15	1185.55016472
48	161752	16	1198.3392996334
48	167879	17	1207.7919486052
48	169306	18	1214.2581141194
48	176780	19	1222.4833751294
48	193004	20	1232.6137142192
48	212237	21	1244.700953389
48	213205	22	1257.6989531962
48	219762	23	1270.70869276
48	220603	24	1283.7308945795
48	240605	25	1294.4872076229
48	253020	26	1301.4772016935
48	258756	27	1309.8144247905
48	259634	28	1320.0497372862
48	264921	29	1332.9289864556
48	278054	30	1342.1270114245
48	293093	31	1351.3259306402
48	293719	32	1360.5258618309
48	298515	33	1369.7107333923
48	299017	34	1378.9060129882
48	311981	35	1387.2632396367
48	321435	36	1394.18676754
48	325453	37	1401.2327113402
48	326407	38	1406.056462436
48	330093	39	1411.3604658645
48	337378	40	1418.450183321
48	351049	41	1428.1023533645
48	351799	42	1440.6979061044
48	355624	43	1453.6979511773
48	356160	44	1466.6927192319
48	366077	45	1479.7007605512
48	375041	46	1492.7120753139
48	378396	47	1505.7290552006
48	379022	48	1518.7009785567
48	382151	49	1531.7177427515
48	388325	50	1544.7140191789
48	399300	51	1557.7335005211
48	399956	52	1570.7328097532
48	402836	53	1583.7494575516
48	403494	54	1596.5324364327
48	410599	55	1606.9474445557
48	418025	56	1613.9943049588
48	420899	57	1619.2445688676
48	421413	58	1620.2
48	424311	59	1620.2
48	427978	60	1620.2
48	435283	61	1620.2
48	435623	62	1620.2
48	437798	63	1620.2
48	438232	64	1620.2
48	442804	65	1620.2
48	448330	66	1620.2
48	450239	67	1620.2
48	450390	68	1620.2
48	451905	69	1620.2
48	454087	70	1620.2
48	459130	71	1620.2
48	459261	72	1620.2
48	460697	73	1620.2
48	460943	74	1620.2
48	463682	75	1620.2
48	466956	76	1620.2
48	468122	77	1620.2
48	468368	78	1620.2
48	469534	79	1620.2
48	470572	80	1620.2
48	474195	81	1620.2
48	474306	82	1620.2
48	475326	83	1620.2
48	475427	84	1620.2
48	477124	85	1620.2
48	479481	86	1620.2
48	480237	87	1620.2
48	480459	88	1620.2
48	481212	89	1620.2
48	482349	90	1620.2
48	485232	91	1620.2
48	485439	92	1620.2
48	486121	93	1620.2
48	486325	94	1620.2
48	487468	95	1620.2
48	489445	96	1620.2
48	490069	97	1620.2
48	490214	98	1620.2
48	490810	99	1620.2
48	491257	100	1620.2
48	493290	101	1620.2
48	493474	102	1620.2
48	493927	103	1620.2
48	493998	104	1620.2
48	494821	105	1620.2
48	496070	106	1620.2
48	496389	107	1620.2
48	496450	108	1620.2
48	496812	109	1620.2
48	497166	110	1620.2
48	498296	111	1620.2
48	498357	112	1620.2
48	498675	113	1620.2
48	498778	114	1620.2
48	499350	115	1620.2
48	500129	116	1620.2
48	500490	117	1620.2
48	500541	118	1620.2
48	500778	119	1620.2
48	501047	120	1620.2
48	501766	121	1620.2
48	501817	122	1620.2
48	502053	123	1620.2
48	502106	124	1620.2
48	502655	125	1620.2
48	503224	126	1620.2
48	503496	127	1620.2
48	503618	128	1620.2
48	503914	129	1620.2
48	504219	130	1620.2
48	504942	131	1620.2
48	505056	132	1620.2
48	505293	133	1620.2
48	505344	134	1620.2
48	505831	135	1620.2
48	506333	136	1620.2
48	506604	137	1620.2
48	506655	138	1620.2
48	506926	139	1620.2
48	507231	140	1620.2
48	507845	141	1620.2
48	507932	142	1620.2
48	508167	143	1620.2
48	508219	144	1620.2
48	508743	145	1620.2
48	509173	146	1620.2
48	509479	147	1620.2
48	509599	148	1620.2
48	509815	149	1620.2
48	509947	150	1620.2
48	510432	151	1620.2
48	510473	152	1620.2
48	510638	153	1620.2
48	510679	154	1620.2
48	510995	155	1620.2
48	511414	156	1620.2
48	511579	157	1620.2
48	511680	158	1620.2
48	511844	159	1620.2
48	511973	160	1620.2
48	512513	161	1620.2
48	512554	162	1620.2
48	512659	163	1620.2
48	512680	164	1618.0042430326
48	512719	165	1611.9775457262
48	512783	166	1604.1829422081
48	512809	167	1594.4126182917
48	512820	168	1582.6706665986
48	512846	169	1569.6878402462
48	512857	170	1556.6725059254
48	512923	171	1543.6607577671

