version 2
run General-0-20250613-01:18:30-14628
attr configname General
attr datetime 20250613-01:18:30
attr experiment General
attr inifile omnetpp.ini
attr iterationvars ""
attr iterationvarsf ""
attr measurement ""
attr network RSUExampleScenario
attr processid 14628
attr repetition 0
attr replication #0
attr resultdir results
attr runnumber 0
attr seedset 0
param *.playgroundSizeX 5000m
param *.playgroundSizeY 5000m
param *.playgroundSizeZ 50m
param *.annotations.draw true
param *.obstacles.obstacles "xmldoc(\"config.xml\", \"//AnalogueModel[@type='SimpleObstacleShadowing']/obstacles\")"
param *.manager.updateInterval 1s
param *.manager.host "\"localhost\""
param *.manager.port 9999
param *.manager.autoShutdown true
param *.manager.launchConfig "xmldoc(\"erlangen.launchd.xml\")"
param *.manager.trafficLightModuleType "\"org.car2x.veins.nodes.TrafficLight\""
param *.tls[*].mobility.x 0
param *.tls[*].mobility.y 0
param *.tls[*].mobility.z 3
param *.tls[*].applType "\"org.car2x.veins.modules.application.traci.TraCIDemoTrafficLightApp\""
param *.tls[*].logicType "\"org.car2x.veins.modules.world.traci.trafficLight.logics.TraCITrafficLightSimpleLogic\""
param *.rsu[0].mobility.x 1000
param *.rsu[0].mobility.y 1000
param *.rsu[0].mobility.z 3
param *.rsu[*].applType "\"RSUControlApp\""
param *.rsu[*].appl.headerLength "80 bit"
param *.rsu[*].appl.sendBeacons false
param *.rsu[*].appl.dataOnSch false
param *.rsu[*].appl.beaconInterval 1s
param *.rsu[*].appl.beaconUserPriority 7
param *.rsu[*].appl.dataUserPriority 5
param *.rsu[*].appl.netFile "\"./erlangen.net.xml\""
param *.rsu[*].appl.routeFile "\"./erlangen.rou.xml\""
param *.rsu[*].nic.phy80211p.antennaOffsetZ "0 m"
param *.connectionManager.sendDirect true
param *.connectionManager.maxInterfDist 4000m
param *.connectionManager.drawMaxIntfDist false
param *.**.nic.mac1609_4.useServiceChannel false
param *.**.nic.mac1609_4.txPower 50mW
param *.**.nic.mac1609_4.bitrate 6Mbps
param *.**.nic.phy80211p.minPowerLevel -110dBm
param *.**.nic.phy80211p.useNoiseFloor true
param *.**.nic.phy80211p.noiseFloor -98dBm
param *.**.nic.phy80211p.decider "xmldoc(\"config.xml\")"
param *.**.nic.phy80211p.analogueModels "xmldoc(\"config.xml\")"
param *.**.nic.phy80211p.usePropagationDelay true
param *.**.nic.phy80211p.antenna "xmldoc(\"antenna.xml\", \"/root/Antenna[@id='monopole']\")"
param *.node[*].nic.phy80211p.antennaOffsetY "0 m"
param *.node[*].nic.phy80211p.antennaOffsetZ "1.895 m"
param *.node[*].applType "\"VehicleControlApp\""
param *.node[*].appl.headerLength "80 bit"
param *.node[*].appl.sendBeacons true
param *.node[*].appl.dataOnSch false
param *.node[*].appl.beaconInterval 1s
param *.node[*].veinsmobility.x 0
param *.node[*].veinsmobility.y 0
param *.node[*].veinsmobility.z 0
param *.node[*].veinsmobility.setHostSpeed false
param *.node[*0].veinsmobility.accidentCount 1
param *.node[*0].veinsmobility.accidentStart 73s
param *.node[*0].veinsmobility.accidentDuration 50s

vector 0 RSUExampleScenario.node[0].veinsmobility posx ETV
vector 1 RSUExampleScenario.node[0].veinsmobility posy ETV
vector 2 RSUExampleScenario.node[1].veinsmobility posx ETV
vector 3 RSUExampleScenario.node[1].veinsmobility posy ETV
vector 4 RSUExampleScenario.node[2].veinsmobility posx ETV
vector 5 RSUExampleScenario.node[2].veinsmobility posy ETV
vector 6 RSUExampleScenario.node[3].veinsmobility posx ETV
vector 7 RSUExampleScenario.node[3].veinsmobility posy ETV
vector 8 RSUExampleScenario.node[4].veinsmobility posx ETV
vector 9 RSUExampleScenario.node[4].veinsmobility posy ETV
vector 10 RSUExampleScenario.node[5].veinsmobility posx ETV
vector 11 RSUExampleScenario.node[5].veinsmobility posy ETV
vector 12 RSUExampleScenario.node[6].veinsmobility posx ETV
vector 13 RSUExampleScenario.node[6].veinsmobility posy ETV
vector 14 RSUExampleScenario.node[7].veinsmobility posx ETV
vector 15 RSUExampleScenario.node[7].veinsmobility posy ETV
vector 16 RSUExampleScenario.node[8].veinsmobility posx ETV
vector 17 RSUExampleScenario.node[8].veinsmobility posy ETV
vector 18 RSUExampleScenario.node[9].veinsmobility posx ETV
vector 19 RSUExampleScenario.node[9].veinsmobility posy ETV
vector 20 RSUExampleScenario.node[10].veinsmobility posx ETV
vector 21 RSUExampleScenario.node[10].veinsmobility posy ETV
vector 22 RSUExampleScenario.node[11].veinsmobility posx ETV
vector 23 RSUExampleScenario.node[11].veinsmobility posy ETV
vector 24 RSUExampleScenario.node[12].veinsmobility posx ETV
vector 25 RSUExampleScenario.node[12].veinsmobility posy ETV
vector 26 RSUExampleScenario.node[13].veinsmobility posx ETV
vector 27 RSUExampleScenario.node[13].veinsmobility posy ETV
vector 28 RSUExampleScenario.node[14].veinsmobility posx ETV
vector 29 RSUExampleScenario.node[14].veinsmobility posy ETV
vector 30 RSUExampleScenario.node[15].veinsmobility posx ETV
vector 31 RSUExampleScenario.node[15].veinsmobility posy ETV
vector 32 RSUExampleScenario.node[0].veinsmobility speed ETV
vector 33 RSUExampleScenario.node[1].veinsmobility speed ETV
vector 34 RSUExampleScenario.node[2].veinsmobility speed ETV
vector 35 RSUExampleScenario.node[3].veinsmobility speed ETV
vector 36 RSUExampleScenario.node[4].veinsmobility speed ETV
vector 37 RSUExampleScenario.node[5].veinsmobility speed ETV
vector 38 RSUExampleScenario.node[6].veinsmobility speed ETV
vector 39 RSUExampleScenario.node[7].veinsmobility speed ETV
vector 40 RSUExampleScenario.node[8].veinsmobility speed ETV
vector 41 RSUExampleScenario.node[9].veinsmobility speed ETV
vector 42 RSUExampleScenario.node[10].veinsmobility speed ETV
vector 43 RSUExampleScenario.node[11].veinsmobility speed ETV
vector 44 RSUExampleScenario.node[12].veinsmobility speed ETV
vector 45 RSUExampleScenario.node[13].veinsmobility speed ETV
vector 46 RSUExampleScenario.node[14].veinsmobility speed ETV
vector 47 RSUExampleScenario.node[15].veinsmobility speed ETV
vector 48 RSUExampleScenario.node[0].veinsmobility acceleration ETV
vector 49 RSUExampleScenario.node[0].veinsmobility co2emission ETV
vector 50 RSUExampleScenario.node[1].veinsmobility acceleration ETV
vector 51 RSUExampleScenario.node[1].veinsmobility co2emission ETV
vector 52 RSUExampleScenario.node[2].veinsmobility acceleration ETV
vector 53 RSUExampleScenario.node[2].veinsmobility co2emission ETV
vector 54 RSUExampleScenario.node[3].veinsmobility acceleration ETV
vector 55 RSUExampleScenario.node[3].veinsmobility co2emission ETV
vector 56 RSUExampleScenario.node[4].veinsmobility acceleration ETV
vector 57 RSUExampleScenario.node[4].veinsmobility co2emission ETV
vector 58 RSUExampleScenario.node[5].veinsmobility acceleration ETV
vector 59 RSUExampleScenario.node[5].veinsmobility co2emission ETV
vector 60 RSUExampleScenario.node[6].veinsmobility acceleration ETV
vector 61 RSUExampleScenario.node[6].veinsmobility co2emission ETV
vector 62 RSUExampleScenario.node[7].veinsmobility acceleration ETV
vector 63 RSUExampleScenario.node[7].veinsmobility co2emission ETV
vector 64 RSUExampleScenario.node[8].veinsmobility acceleration ETV
vector 65 RSUExampleScenario.node[8].veinsmobility co2emission ETV
vector 66 RSUExampleScenario.node[9].veinsmobility acceleration ETV
vector 67 RSUExampleScenario.node[9].veinsmobility co2emission ETV
vector 68 RSUExampleScenario.node[10].veinsmobility acceleration ETV
vector 69 RSUExampleScenario.node[10].veinsmobility co2emission ETV
vector 70 RSUExampleScenario.node[11].veinsmobility acceleration ETV
vector 71 RSUExampleScenario.node[11].veinsmobility co2emission ETV
vector 72 RSUExampleScenario.node[12].veinsmobility acceleration ETV
vector 73 RSUExampleScenario.node[12].veinsmobility co2emission ETV
vector 74 RSUExampleScenario.node[13].veinsmobility acceleration ETV
vector 75 RSUExampleScenario.node[13].veinsmobility co2emission ETV
vector 76 RSUExampleScenario.node[14].veinsmobility acceleration ETV
vector 77 RSUExampleScenario.node[14].veinsmobility co2emission ETV
vector 78 RSUExampleScenario.node[15].veinsmobility acceleration ETV
vector 79 RSUExampleScenario.node[15].veinsmobility co2emission ETV
59	6021	3	4.3222398671971
59	6182	4	5.6317108472365
59	13349	5	5.6184008732446
59	16416	6	8.0886313355191
59	18196	7	9.193089425765
59	18357	8	7.3624580618869
59	20327	9	0.973
59	25564	10	0.973
59	30586	11	3.3920704535206
59	31191	12	5.9417932766079
59	33202	13	6.8067044561981
59	33364	14	7.4114281484624
59	40626	15	10.151261198014
59	43971	16	5.1791450788477
59	45911	17	2.3393206099592
59	46303	18	2.4125893946141
59	48305	19	2.0695535884171
59	53748	20	0.973
59	58756	21	0.973
59	59079	22	6.5252679705723
59	61220	23	0.973
59	61543	24	0.973
59	68426	25	0.973
59	71470	26	4.0017584154677
58	6021	3	1.9903404831933
58	6182	4	2.0826404856099
58	13349	5	1.6717912631901
58	16416	6	2.1649839834729
58	18196	7	2.1072319530882
58	18357	8	1.3864372500125
58	20327	9	-4.4273164930904
58	25564	10	-4.5
58	30586	11	1.0301174458419
58	31191	12	1.8873350342247
58	33202	13	1.8440146036888
58	33364	14	1.7407567341439
58	40626	15	2.1774016945227
58	43971	16	0.75926976126189
58	45911	17	0.020783982293215
58	46303	18	0.038510566770563
58	48305	19	-0.048923371317795
58	53748	20	-2.4348873746551
58	58756	21	-4.5
58	59079	22	1.8220352310222
58	61220	23	-0.60282835435047
58	61543	24	-4.235016572986
58	68426	25	-0.92067694650031
58	71470	26	1.577101349514
37	4235	2	4.0557845440995
37	6021	3	6.0461250272927
37	6182	4	8.1287655129026
37	13349	5	9.8005567760927
37	16416	6	11.965540759566
37	18196	7	14.072772712654
37	18357	8	15.459209962666
37	20327	9	11.031893469576
37	25564	10	6.531893469576
37	30586	11	7.5620109154179
37	31191	12	9.4493459496426
37	33202	13	11.293360553331
37	33364	14	13.034117287475
37	40626	15	15.211518981998
37	43971	16	15.97078874326
37	45911	17	15.991572725553
37	46303	18	16.030083292324
37	48305	19	15.981159921006
37	53748	20	13.546272546351
37	58756	21	9.0462725463508
37	59079	22	10.868307777373
37	61220	23	10.265479423022
37	61543	24	6.0304628500365
37	68426	25	5.1097859035362
37	71470	26	6.6868872530502
11	3	1	1248.498066442
11	4235	2	1248.4635581449
11	6021	3	1252.0832989216
11	6182	4	1257.1744920019
11	13349	5	1263.5537572398
11	16416	6	1271.3751541466
11	18196	7	1280.665303843
11	18357	8	1291.2897962215
11	20327	9	1300.4942860157
11	25564	10	1306.5448913608
11	30586	11	1311.0793707515
11	31191	12	1316.2442316252
11	33202	13	1318.5650399869
11	33364	14	1313.9395160118
11	40626	15	1304.5285956005
11	43971	16	1293.3001658232
11	45911	17	1281.9985182317
11	46303	18	1270.684665386
11	48305	19	1259.3891587668
11	53748	20	1248.6425851637
11	58756	21	1240.8138847118
11	59079	22	1233.9194381101
11	61220	23	1229.2314073696
11	61543	24	1223.4973049605
11	68426	25	1221.0212436876
11	71470	26	1219.7170171795
10	3	1	1641.708066442
10	4235	2	1646.1935581449
10	6021	3	1649.8132989216
10	6182	4	1654.9044920019
10	13349	5	1661.2837572398
10	16416	6	1669.1051541466
10	18196	7	1678.395303843
10	18357	8	1689.0197962215
10	20327	9	1698.2242860157
10	25564	10	1704.2748913608
10	30586	11	1709.0435991864
10	31191	12	1715.9382396893
10	33202	13	1726.0198400526
10	33364	14	1737.1383554028
10	40626	15	1747.7406384086
10	43971	16	1758.9675983037
10	45911	17	1770.2677664284
10	46303	18	1781.5801382094
10	48305	19	1792.8741661657
10	53748	20	1803.619332965
10	58756	21	1811.4470085837
10	59079	22	1818.3534346671
10	61220	23	1827.6028179375
10	61543	24	1830.8607071118
10	68426	25	1829.2612335876
10	71470	26	1825.1206353025
71	6021	3	4.8276254238421
71	6182	4	5.9795534713419
71	13349	5	6.1080872430013
71	16416	6	7.167207166404
71	18196	7	5.003002696046
71	18357	8	2.0071827842653
71	20327	9	1.850124800732
71	25564	10	0.973
71	30586	11	0.973
71	31191	12	2.0555629060953
71	33202	13	1.5809529823032
71	33364	14	1.4089548584004
71	40626	15	5.7375770690531
71	43971	16	7.2520655367842
71	45911	17	6.3977691716865
71	46303	18	1.9782211605859
71	48305	19	0.973
71	53748	20	0.973
71	58756	21	1.2426704205231
71	59079	22	1.3506953142868
71	61220	23	5.2091643602949
71	61543	24	6.0530490806077
71	68426	25	7.9987618848152
71	71470	26	5.3289590057386
71	73428	27	2.2699879020222
71	73908	28	1.9452730374597
70	6021	3	2.2499323590239
70	6182	4	2.1701100613736
70	13349	5	1.7895917882072
70	16416	6	1.8303674564185
70	18196	7	0.97521468350667
70	18357	8	0.020045909557957
70	20327	9	-0.029101848159918
70	25564	10	-4.2775371901324
70	30586	11	-0.95
70	31191	12	0.26246376663432
70	33202	13	0.017167239887639
70	33364	14	-0.069547766060568
70	40626	15	1.7363885727897
70	43971	16	1.9324292459083
70	45911	17	1.41206643903
70	46303	18	0.009469266654925
70	48305	19	-3.8025606804478
70	53748	20	-3.08
70	58756	21	-0.12380152709761
70	59079	22	-0.048536707512103
70	61220	23	1.9157496962137
70	61543	24	1.8552878106921
70	68426	25	2.1387996951956
70	71470	26	1.0792893606397
70	73428	27	0.1006505614589
70	73908	28	-0.001972258244642
43	4235	2	4.0077364812384
43	6021	3	6.2576688402623
43	6182	4	8.4277789016359
43	13349	5	10.217370689843
43	16416	6	12.047738146261
43	18196	7	13.022952829768
43	18357	8	13.042998739326
43	20327	9	13.013896891166
43	25564	10	8.7363597010338
43	30586	11	7.7863597010338
43	31191	12	8.0488234676682
43	33202	13	8.0659907075558
43	33364	14	7.9964429414952
43	40626	15	9.732831514285
43	43971	16	11.665260760193
43	45911	17	13.077327199223
43	46303	18	13.086796465878
43	48305	19	9.2842357854303
43	53748	20	6.2042357854303
43	58756	21	6.0804342583327
43	59079	22	6.0318975508206
43	61220	23	7.9476472470343
43	61543	24	9.8029350577264
43	68426	25	11.941734752922
43	71470	26	13.021024113562
43	73428	27	13.121674675021
43	73908	28	13.119702416776
23	3	1	1148.5129361418
23	4235	2	1148.4647640366
23	6021	3	1152.1418068605
23	6182	4	1157.3902220731
23	13349	5	1164.054959774
23	16416	6	1172.0129730282
23	18196	7	1181.0675786607
23	18357	8	1190.3054858597
23	20327	9	1199.5281837647
23	25564	10	1207.1227474436
23	30586	11	1211.7705027792
23	31191	12	1213.8208661398
23	33202	13	1209.9528791278
23	33364	14	1202.2487560589
23	40626	15	1193.3092746924
23	43971	16	1182.5130508863
23	45911	17	1169.8715414602
23	46303	18	1156.8079018405
23	48305	19	1145.535913874
23	53748	20	1138.5136780886
23	58756	21	1132.3055356041
23	59079	22	1129.8
23	61220	23	1129.8
23	61543	24	1129.8
23	68426	25	1129.8
23	71470	26	1129.8
23	73428	27	1129.8
23	73908	28	1129.8
22	3	1	941.72293614178
22	4235	2	946.19476403656
22	6021	3	949.87180686051
22	6182	4	955.12022207311
22	13349	5	961.78495977398
22	16416	6	969.7429730282
22	18196	7	978.7975786607
22	18357	8	988.0354858597
22	20327	9	997.25818376473
22	25564	10	1004.8527474436
22	30586	11	1010.4555184242
22	31191	12	1017.8950512102
22	33202	13	1024.5420724917
22	33364	14	1029.8
22	40626	15	1029.8
22	43971	16	1029.8
22	45911	17	1029.8
22	46303	18	1029.8
22	48305	19	1029.8
22	53748	20	1029.8
22	58756	21	1030.5366786375
22	59079	22	1035.6684085791
22	61220	23	1042.7452403785
22	61543	24	1051.6769499316
22	68426	25	1062.668919292
22	71470	26	1075.4601391427
22	73428	27	1088.5177227286
22	73908	28	1101.6068331765
57	6021	3	4.6154744391949
57	6182	4	4.9031319399221
57	13349	5	6.4439412516456
57	16416	6	6.9220527658505
57	18196	7	3.0509481776847
57	18357	8	1.9423717596402
57	20327	9	1.8562517498077
57	25564	10	2.0879370682485
57	30586	11	1.7549361561542
57	31191	12	1.8242450306019
57	33202	13	1.8975259944464
57	33364	14	1.7675385234661
57	40626	15	2.0010427103397
57	43971	16	1.7992000743781
57	45911	17	2.0677595523475
57	46303	18	1.6222382141047
57	48305	19	0.973
57	53748	20	0.973
57	58756	21	1.7562389603819
57	59079	22	3.8560022458664
57	61220	23	2.2186690485623
57	61543	24	2.1167701779844
57	68426	25	1.9929451982645
57	71470	26	1.8056550801033
57	73428	27	1.7846147296186
57	73908	28	1.8796404998857
57	75777	29	1.7495420844328
57	80111	30	1.8880182930117
56	6021	3	2.1341077044327
56	6182	4	1.7558462764183
56	13349	5	1.9891913347668
56	16416	6	1.8014362637512
56	18196	7	0.4064137843604
56	18357	8	0.026795209420378
56	20327	9	-0.0024875293509101
56	25564	10	0.073808332602495
56	30586	11	-0.038012037340087
56	31191	12	-0.014038519957102
56	33202	13	0.010572074828669
56	33364	14	-0.032724717350211
56	40626	15	0.045343055340927
56	43971	16	-0.022580188990105
56	45911	17	0.066432192544452
56	46303	18	-0.082428912569302
56	48305	19	-0.34466817270187
56	53748	20	-0.49634221228771
56	58756	21	-0.012474655599799
56	59079	22	0.69281276510796
56	61220	23	0.12237599432157
56	61543	24	0.084376663342118
56	68426	25	0.040952392434701
56	71470	26	-0.021796796789857
56	73428	27	-0.028138247861062
56	73908	28	0.0040231528016736
56	75777	29	-0.039100423576309
56	80111	30	0.0078389068669633
36	4235	2	4.0581920730798
36	6021	3	6.1922997775125
36	6182	4	7.9481460539308
36	13349	5	9.9373373886976
36	16416	6	11.738773652449
36	18196	7	12.145187436809
36	18357	8	12.17198264623
36	20327	9	12.169495116879
36	25564	10	12.243303449481
36	30586	11	12.205291412141
36	31191	12	12.191252892184
36	33202	13	12.201824967013
36	33364	14	12.169100249662
36	40626	15	12.214443305003
36	43971	16	12.191863116013
36	45911	17	12.258295308558
36	46303	18	12.175866395988
36	48305	19	11.831198223287
36	53748	20	11.334856010999
36	58756	21	11.322381355399
36	59079	22	12.015194120507
36	61220	23	12.137570114829
36	61543	24	12.221946778171
36	68426	25	12.262899170605
36	71470	26	12.241102373816
36	73428	27	12.212964125954
36	73908	28	12.216987278756
36	75777	29	12.17788685518
36	80111	30	12.185725762047
9	3	1	1139.0981554786
9	4235	2	1141.9485870297
9	6021	3	1146.5938733734
9	6182	4	1152.9804076851
9	13349	5	1161.0402903449
9	16416	6	1170.85210096
9	18196	7	1181.7244009819
9	18357	8	1192.6438521566
9	20327	9	1203.5441793039
9	25564	10	1214.4818933731
9	30586	11	1225.3937880156
9	31191	12	1236.3185215772
9	33202	13	1247.2323039792
9	33364	14	1258.1189927342
9	40626	15	1269.0443038484
9	43971	16	1279.9517129682
9	45911	17	1290.8647363201
9	46303	18	1301.7693657372
9	48305	19	1312.6588867465
9	53748	20	1323.5560510966
9	58756	21	1334.1245394109
9	59079	22	1342.7560990953
9	61220	23	1351.3694765649
9	61543	24	1360.007819625
9	68426	25	1368.6486348625
9	71470	26	1377.2805357839
9	73428	27	1385.9134266969
9	73908	28	1394.5485407388
9	75777	29	1403.1822250897
9	80111	30	1411.7906940398
8	3	1	1326.6790777393
8	4235	2	1328.1042935149
8	6021	3	1330.4269366867
8	6182	4	1333.6202038426
8	13349	5	1337.6501451725
8	16416	6	1342.55605048
8	18196	7	1347.992200491
8	18357	8	1353.4519260783
8	20327	9	1358.9020896519
8	25564	10	1364.3709466866
8	30586	11	1369.8268940078
8	31191	12	1375.2892607886
8	33202	13	1380.7461519896
8	33364	14	1386.1894963671
8	40626	15	1391.6521519242
8	43971	16	1397.1058564841
8	45911	17	1402.5623681601
8	46303	18	1408.0146828686
8	48305	19	1413.4594433733
8	53748	20	1415.8856667866
8	58756	21	1412.4821746196
8	59079	22	1404.9739009047
8	61220	23	1396.3605234351
8	61543	24	1387.722180375
8	68426	25	1379.0813651375
8	71470	26	1370.4494642161
8	73428	27	1361.8165733031
8	73908	28	1353.1814592612
8	75777	29	1344.5477749103
8	80111	30	1335.9393059602
67	6021	3	4.1994324458336
67	6182	4	5.1485935617629
67	13349	5	5.6071769922897
67	16416	6	7.0843717899198
67	18196	7	8.5415285715968
67	18357	8	9.9179933639027
67	20327	9	10.152859280445
67	25564	10	3.0235888562738
67	30586	11	2.6122569639573
67	31191	12	2.2071396394722
67	33202	13	2.6169554590942
67	33364	14	2.4509181030746
67	40626	15	2.3353846524934
67	43971	16	2.5504965674931
67	45911	17	2.6221609407441
67	46303	18	2.3285088683657
67	48305	19	2.2252628209063
67	53748	20	2.9708887674381
67	58756	21	1.9962754406966
67	59079	22	2.7673437449351
67	61220	23	2.1705409980561
67	61543	24	0.973
67	68426	25	0.973
67	71470	26	0.973
67	73428	27	3.2529562525586
67	73908	28	6.0485407446147
67	75777	29	7.730251820571
67	80111	30	7.1453159313923
67	84407	31	9.1675190561656
67	84791	32	10.51367756462
67	86157	33	4.5846973244271
67	86440	34	2.1444899183287
66	6021	3	1.9488014694792
66	6182	4	1.913322959654
66	13349	5	1.7170509184617
66	16416	6	1.9108210201398
66	18196	7	2.0166577689
66	18357	8	2.0583974936395
66	20327	9	1.842090115617
66	25564	10	0.13531308486763
66	30586	11	0.036668545000722
66	31191	12	-0.05744491250487
66	33202	13	0.038421081323175
66	33364	14	-0.00083281806204383
66	40626	15	-0.027346222444905
66	43971	16	0.022873078223785
66	45911	17	0.038529069800859
66	46303	18	-0.029916744458024
66	48305	19	-0.052831219537183
66	53748	20	0.11946187643567
66	58756	21	-0.10746224100236
66	59079	22	0.072739481201861
66	61220	23	-0.0663252980425
66	61543	24	-1.98227126946
66	68426	25	-4.4948042547959
66	71470	26	-4.4994829482817
66	73428	27	0.96447986193467
66	73908	28	1.9378311349684
66	75777	29	2.1250824693707
66	80111	30	1.6316438214178
66	84407	31	1.9242130417237
66	84791	32	1.9715555532719
66	86157	33	0.50103785380505
66	86440	34	-0.07268038665643
41	4235	2	3.9793318004404
41	6021	3	5.9281332699197
41	6182	4	7.8414562295737
41	13349	5	9.5585071480354
41	16416	6	11.469328168175
41	18196	7	13.485985937075
41	18357	8	15.544383430715
41	20327	9	17.386473546332
41	25564	10	17.521786631199
41	30586	11	17.5584551762
41	31191	12	17.501010263695
41	33202	13	17.539431345019
41	33364	14	17.538598526956
41	40626	15	17.511252304512
41	43971	16	17.534125382735
41	45911	17	17.572654452536
41	46303	18	17.542737708078
41	48305	19	17.489906488541
41	53748	20	17.609368364977
41	58756	21	17.501906123974
41	59079	22	17.574645605176
41	61220	23	17.508320307134
41	61543	24	15.526049037674
41	68426	25	11.031244782878
41	71470	26	6.5317618345961
41	73428	27	7.4962416965307
41	73908	28	9.4340728314992
41	75777	29	11.55915530087
41	80111	30	13.190799122288
41	84407	31	15.115012164011
41	84791	32	17.086567717283
41	86157	33	17.587605571088
41	86440	34	17.514925184432
19	3	1	929.8
19	4235	2	929.8
19	6021	3	929.8
19	6182	4	929.8
19	13349	5	929.8
19	16416	6	929.8
19	18196	7	929.8
19	18357	8	929.8
19	20327	9	929.8
19	25564	10	929.8
19	30586	11	929.8
19	31191	12	929.8
19	33202	13	929.8
19	33364	14	929.8
19	40626	15	929.8
19	43971	16	929.8
19	45911	17	929.8
19	46303	18	929.8
19	48305	19	929.8
19	53748	20	929.8
19	58756	21	929.8
19	59079	22	929.8
19	61220	23	929.8
19	61543	24	929.8
19	68426	25	929.8
19	71470	26	929.8
19	73428	27	929.7273032538
19	73908	28	928.96738897681
19	75777	29	927.01112472919
19	80111	30	926.6
19	84407	31	926.6
19	84791	32	926.6
19	86157	33	926.6
19	86440	34	926.6
18	3	1	1341.6067530957
18	4235	2	1344.7548281147
18	6021	3	1349.8960094089
18	6182	4	1356.8701435105
18	13349	5	1365.5809778722
18	16416	6	1376.1696905214
18	18196	7	1388.7252975201
18	18357	8	1403.3296677093
18	20327	9	1419.8393483873
18	25564	10	1437.3613469423
18	30586	11	1454.8949815336
18	31191	12	1472.4285275158
18	33202	13	1489.9443611151
18	33364	14	1507.4725971048
18	40626	15	1525.0252052083
18	43971	16	1542.5784389339
18	45911	17	1560.122815436
18	46303	18	1577.6659773914
18	48305	19	1595.2183117449
18	53748	20	1612.7621116897
18	58756	21	1630.2979551805
18	59079	22	1647.8621924159
18	61220	23	1665.4113622702
18	61543	24	1682.3780119292
18	68426	25	1695.4295805413
18	71470	26	1703.9859804397
18	73428	27	1710.5658782646
18	73908	28	1719.1107434766
18	75777	29	1729.5440484555
18	80111	30	1742.0216754354
18	84407	31	1756.270270542
18	84791	32	1772.4727352229
18	86157	33	1789.9914227124
18	86440	34	1807.5292573234
77	6021	3	3.9124862728068
77	6182	4	4.8985932514964
77	13349	5	5.8611192777808
77	16416	6	7.5467325275799
77	18196	7	8.511665251703
77	18357	8	4.522826666555
77	20327	9	2.1193663858516
77	25564	10	2.232594486047
77	30586	11	1.9445783024486
77	31191	12	2.2296447939731
77	33202	13	2.0106427752916
77	33364	14	1.8669932859443
77	40626	15	2.0360714147357
77	43971	16	0.973
77	45911	17	0.973
77	46303	18	5.0354443560188
77	48305	19	0.973
77	53748	20	6.1220149267467
77	58756	21	6.7309146424043
77	59079	22	7.9542152404712
77	61220	23	7.3896199168181
77	61543	24	2.186920326383
77	68426	25	0.973
77	71470	26	0.973
77	73428	27	0.973
77	73908	28	0.973
77	75777	29	1.4419403205918
77	80111	30	4.4846574744584
77	84407	31	5.3053293844626
77	84791	32	6.1620869765368
77	86157	33	7.6839529773543
77	86440	34	8.0113331198371
77	90998	35	3.2740175786086
77	93213	36	1.9053636512973
76	6021	3	1.7322634188505
76	6182	4	1.7988098975806
76	13349	5	1.8194912783406
76	16416	6	2.0431189667922
76	18196	7	1.9836144871055
76	18357	8	0.70936105890454
76	20327	9	0.012994376462885
76	25564	10	0.044264916542451
76	30586	11	-0.037753535229712
76	31191	12	0.043230869479011
76	33202	13	-0.019345329562201
76	33364	14	-0.059259315042292
76	40626	15	-0.0099499663664027
76	43971	16	-3.2329167734769
76	45911	17	-4.4694209213543
76	46303	18	1.7285748120747
76	48305	19	-1.5945379106785
76	53748	20	2.1185969629465
76	58756	21	1.9200695547694
76	59079	22	1.9666060070298
76	61220	23	1.5454806007152
76	61543	24	0.033293240645435
76	68426	25	-0.55203866782976
76	71470	26	-4.4438590865347
76	73428	27	-3.5257565456111
76	73908	28	-1.0110333729163
76	75777	29	0.074120776830241
76	80111	30	1.8645160982502
76	84407	31	1.8111071388167
76	84791	32	1.7891269959556
76	86157	33	1.9618916423549
76	86440	34	1.7623321963334
76	90998	35	0.34422764025929
76	93213	36	-0.048987060815563
46	4235	2	4.2430116034465
46	6021	3	5.975275022297
46	6182	4	7.7740849198777
46	13349	5	9.5935761982182
46	16416	6	11.63669516501
46	18196	7	13.620309652116
46	18357	8	14.329670711021
46	20327	9	14.342665087483
46	25564	10	14.386930004026
46	30586	11	14.349176468796
46	31191	12	14.392407338275
46	33202	13	14.373062008713
46	33364	14	14.313802693671
46	40626	15	14.303852727304
46	43971	16	11.070935953827
46	45911	17	6.6015150324731
46	46303	18	8.3300898445477
46	48305	19	6.7355519338692
46	53748	20	8.8541488968157
46	58756	21	10.774218451585
46	59079	22	12.740824458615
46	61220	23	14.28630505933
46	61543	24	14.319598299976
46	68426	25	13.767559632146
46	71470	26	9.3237005456111
46	73428	27	5.797944
46	73908	28	4.7869106270837
46	75777	29	4.861031403914
46	80111	30	6.7255475021641
46	84407	31	8.5366546409809
46	84791	32	10.325781636936
46	86157	33	12.287673279291
46	86440	34	14.050005475625
46	90998	35	14.394233115884
46	93213	36	14.345246055069
29	3	1	231.1451969846
29	4235	2	234.38389802722
29	6021	3	239.57689138272
29	6182	4	246.50395286979
29	13349	5	255.25772692726
29	16416	6	265.94780682042
29	18196	7	278.62350719073
29	18357	8	292.88085839101
29	20327	9	307.22614714997
29	25564	10	321.57630595896
29	30586	11	335.94284960658
29	31191	12	350.31549769108
29	33202	13	364.68938302554
29	33364	14	379.04124396075
29	40626	15	393.39120667396
29	43971	16	406.37056926968
29	45911	17	414.98093174033
29	46303	18	421.88056701413
29	48305	19	426.05959866446
29	53748	20	426.6
29	58756	21	426.6
29	59079	22	426.6
29	61220	23	426.6
29	61543	24	426.6
29	68426	25	426.6
29	71470	26	426.6
29	73428	27	426.6
29	73908	28	423.8422616969
29	75777	29	420.38271474189
29	80111	30	420.2
29	84407	31	420.2
29	84791	32	420.2
29	86157	33	420.2
29	86440	34	420.2
29	90998	35	420.2
29	93213	36	420.2
28	3	1	1220.2
28	4235	2	1220.2
28	6021	3	1220.2
28	6182	4	1223.4
28	13349	5	1223.4
28	16416	6	1223.4
28	18196	7	1223.4
28	18357	8	1223.4
28	20327	9	1223.4
28	25564	10	1223.4
28	30586	11	1223.4
28	31191	12	1223.4
28	33202	13	1223.4
28	33364	14	1223.4
28	40626	15	1223.4
28	43971	16	1223.4
28	45911	17	1223.4545285354
28	46303	18	1225.3683402085
28	48305	19	1231.6171906512
28	53748	20	1239.5988406503
28	58756	21	1249.5466284167
28	59079	22	1261.3795008511
28	61220	23	1275.2193667149
28	61543	24	1289.5560285301
28	68426	25	1303.8377870542
28	71470	26	1315.1594377166
28	73428	27	1322.2768480482
28	73908	28	1325.9988691516
28	75777	29	1323.2940721128
28	80111	30	1317.5531429979
28	84407	31	1309.7306045539
28	84791	32	1300.2006120017
28	86157	33	1288.8485013911
28	86440	34	1275.578419665
28	90998	35	1261.2427840018
28	93213	36	1246.8933069895
75	6021	3	3.9113841411907
75	6182	4	5.0530143973736
75	13349	5	6.5366544831596
75	16416	6	7.3386262476773
75	18196	7	8.2555048570509
75	18357	8	1.8943548176267
75	20327	9	2.3192443558024
75	25564	10	1.7915239497371
75	30586	11	1.9262548190589
75	31191	12	2.0130688199429
75	33202	13	1.9533004215849
75	33364	14	1.9320704840418
75	40626	15	2.1483220432186
75	43971	16	0.973
75	45911	17	0.973
75	46303	18	0.973
75	48305	19	1.5871346143431
75	53748	20	2.0346463882852
75	58756	21	5.5620684754039
75	59079	22	7.1811315718706
75	61220	23	7.6118372077047
75	61543	24	4.9981291855494
75	68426	25	1.7416623333844
75	71470	26	2.331040713467
75	73428	27	1.918647435678
75	73908	28	1.837722430314
75	75777	29	2.0655480617965
75	80111	30	2.1432661469121
75	84407	31	1.940255103696
75	84791	32	0.973
75	86157	33	0.973
75	86440	34	0.973
75	90998	35	6.1392247714554
75	93213	36	6.6951676787651
75	94393	37	7.6883582390378
75	94720	38	5.8743709732363
75	95762	39	1.8526211824364
75	98357	40	2.2889414218197
75	101231	41	2.0487787497093
75	101342	42	1.6844383892531
74	6021	3	1.7875950574805
74	6182	4	1.8993085455126
74	13349	5	2.0665590610867
74	16416	6	1.9510284801759
74	18196	7	1.9038124962313
74	18357	8	-0.031726750510279
74	20327	9	0.094386909729801
74	25564	10	-0.063886693739333
74	30586	11	-0.022230861438439
74	31191	12	0.0041159375500879
74	33202	13	-0.013702327166685
74	33364	14	-0.019614044635091
74	40626	15	0.044955568518491
74	43971	16	-2.3717998807481
74	45911	17	-4.5
74	46303	18	-0.20064273684488
74	48305	19	0.081497226802167
74	53748	20	0.33216261753347
74	58756	21	1.8627912356728
74	59079	22	2.0668023347994
74	61220	23	1.8538960917387
74	61543	24	0.90963241917049
74	68426	25	-0.077837752753403
74	71470	26	0.098536769789643
74	73428	27	-0.025832539922558
74	73908	28	-0.049116739179007
74	75777	29	0.019748862925917
74	80111	30	0.042013942319899
74	84407	31	-0.019078937678133
74	84791	32	-0.45897312959166
74	86157	33	-4.4405768007373
74	86440	34	-2.37
74	90998	35	2.2038020088803
74	93213	36	1.9567250235775
74	94393	37	1.9298108274746
74	94720	38	1.1774110965528
74	95762	39	-0.044474849496037
74	98357	40	0.085510254236869
74	101231	41	0.012306415764614
74	101342	42	-0.095835816042962
45	4235	2	4.0223714623906
45	6021	3	5.8099665198711
45	6182	4	7.7092750653837
45	13349	5	9.7758341264704
45	16416	6	11.726862606646
45	18196	7	13.630675102878
45	18357	8	13.598948352367
45	20327	9	13.693335262097
45	25564	10	13.629448568358
45	30586	11	13.607217706919
45	31191	12	13.611333644469
45	33202	13	13.597631317303
45	33364	14	13.578017272668
45	40626	15	13.622972841186
45	43971	16	11.251172960438
45	45911	17	6.751172960438
45	46303	18	6.5505302235931
45	48305	19	6.6320274503953
45	53748	20	6.9641900679287
45	58756	21	8.8269813036015
45	59079	22	10.893783638401
45	61220	23	12.74767973014
45	61543	24	13.65731214931
45	68426	25	13.579474396557
45	71470	26	13.678011166346
45	73428	27	13.652178626424
45	73908	28	13.603061887245
45	75777	29	13.622810750171
45	80111	30	13.664824692491
45	84407	31	13.645745754813
45	84791	32	13.186772625221
45	86157	33	8.7461958244836
45	86440	34	6.3761958244836
45	90998	35	8.5799978333639
45	93213	36	10.536722856941
45	94393	37	12.466533684416
45	94720	38	13.643944780969
45	95762	39	13.599469931473
45	98357	40	13.68498018571
45	101231	41	13.697286601474
45	101342	42	13.601450785431
27	3	1	519.55462740932
27	4235	2	518.12240975507
27	6021	3	515.89668158022
27	6182	4	512.84267493541
27	13349	5	508.9102179272
27	16416	6	504.05832186611
27	18196	7	498.33415720167
27	18357	8	492.24048861648
27	20327	9	486.12453164704
27	25564	10	480.03396053955
27	30586	11	473.93622932448
27	31191	12	467.83654888675
27	33202	13	461.74427743115
27	33364	14	455.64530143195
27	40626	15	449.54545226511
27	43971	16	443.78688599441
27	45911	17	439.86214359977
27	46303	18	436.98887493134
27	48305	19	436.49762913157
27	53748	20	442.51264743259
27	58756	21	450.5276214507
27	59079	22	460.43149134453
27	61220	23	472.32409956046
27	61543	24	485.77678624138
27	68426	25	499.39875415401
27	71470	26	513.02299482889
27	73428	27	526.65093048074
27	73908	28	540.28651162723
27	75777	29	553.93077192651
27	80111	30	567.54534276822
27	84407	31	581.18287603593
27	84791	32	594.76408555804
27	86157	33	605.52101032029
27	86440	34	612.21820614477
27	90998	35	619.85402407949
27	93213	36	629.47680005521
27	94393	37	641.13802057846
27	94720	38	654.51383425749
27	95762	39	668.16263554279
27	98357	40	681.79421890102
27	101231	41	695.46221096437
27	101342	42	709.09485057752
26	3	1	946.62074518136
26	4235	2	949.48518048986
26	6021	3	953.93663683955
26	6182	4	960.04465012917
26	13349	5	967.90956414559
26	16416	6	977.61335626779
26	18196	7	989.06168559665
26	18357	8	1001.249022767
26	20327	9	1013.4809367059
26	25564	10	1025.6620789209
26	30586	11	1037.857541351
26	31191	12	1050.0569022265
26	33202	13	1062.2414451377
26	33364	14	1074.4393971361
26	40626	15	1086.6390954698
26	43971	16	1098.1562280112
26	45911	17	1106.0057128005
26	46303	18	1112.1695570639
26	48305	19	1118.3843512457
26	53748	20	1120.2
26	58756	21	1120.2
26	59079	22	1120.2
26	61220	23	1120.2
26	61543	24	1120.2
26	68426	25	1120.2
26	71470	26	1120.2
26	73428	27	1120.2
26	73908	28	1120.2
26	75777	29	1120.2
26	80111	30	1120.2
26	84407	31	1120.2
26	84791	32	1120.2
26	86157	33	1120.2
26	86440	34	1120.2
26	90998	35	1120.2
26	93213	36	1120.2
26	94393	37	1120.2
26	94720	38	1120.2
26	95762	39	1120.2
26	98357	40	1120.2
26	101231	41	1120.2
26	101342	42	1120.2
69	6021	3	4.0839977969813
69	6182	4	5.0444953329993
69	13349	5	6.4857154051344
69	16416	6	6.8151499237714
69	18196	7	8.843527346579
69	18357	8	0.973
69	20327	9	0.973
69	25564	10	0.973
69	30586	11	1.6800853734737
69	31191	12	4.7384645652997
69	33202	13	5.0328737931667
69	33364	14	6.2610325719246
69	40626	15	7.5731929518874
69	43971	16	8.7503314308347
69	45911	17	0.973
69	46303	18	0.973
69	48305	19	0.973
69	53748	20	6.2720648822167
69	58756	21	4.9981855280412
69	59079	22	4.7008053939853
69	61220	23	8.6654012753478
69	61543	24	8.9465296900853
69	68426	25	3.0913307904355
69	71470	26	0.973
69	73428	27	0.973
69	73908	28	2.1742977252145
69	75777	29	5.3279478460403
69	80111	30	6.8268715629445
69	84407	31	8.3088465887869
69	84791	32	8.5020083287569
69	86157	33	5.120116089522
69	86440	34	0.973
69	90998	35	0.973
69	93213	36	0.973
69	94393	37	6.1354497846761
69	94720	38	6.7642318941954
69	95762	39	2.9387159012251
69	98357	40	6.9380107332543
69	101231	41	8.5747308048137
69	101342	42	7.1199764798165
69	102376	43	2.1704481210456
69	102587	44	2.3102131835907
69	105010	45	2.0150302012155
69	106939	46	2.2272673990897
69	107816	47	2.4217520424361
69	107917	48	2.1362363354364
69	108668	49	2.3196796742814
69	110570	50	2.3481673790627
68	6021	3	1.8620842778799
68	6182	4	1.8664618903515
68	13349	5	2.0294113541394
68	16416	6	1.7843891177792
68	18196	7	2.0709045635862
68	18357	8	-2.4489117963997
68	20327	9	-4.4744351694519
68	25564	10	-2.6679356843794
68	30586	11	0.32617527956376
68	31191	12	2.0917701745452
68	33202	13	1.7429504425218
68	33364	14	1.8693575810711
68	40626	15	1.9608939112723
68	43971	16	1.9767186427419
68	45911	17	-1.6721064066898
68	46303	18	-4.4941648420252
68	48305	19	-0.94135180494315
68	53748	20	2.124636899801
68	58756	21	1.3097777851305
68	59079	22	1.0508324161125
68	61220	23	2.0518415809795
68	61543	24	1.8304893540032
68	68426	25	0.2350416763663
68	71470	26	-4.2215467328625
68	73428	27	-4.5
68	73908	28	0.39006218888797
68	75777	29	1.722673108743
68	80111	30	1.9324116928992
68	84407	31	2.0448107935907
68	84791	32	1.7983078675368
68	86157	33	0.78009201631184
68	86440	34	-0.76616571566458
68	90998	35	-4.4904127482181
68	93213	36	-4.4837041153626
68	94393	37	2.3434066068986
68	94720	38	2.0643473434099
68	95762	39	0.46880007275996
68	98357	40	1.6994583836198
68	101231	41	1.8962119292887
68	101342	42	1.3101155185654
68	102376	43	-0.0097806645487442
68	102587	44	0.026656132515054
68	105010	45	-0.050603612500709
68	106939	46	0.0059444681531744
68	107816	47	0.055985442362726
68	107917	48	-0.019458608429412
68	108668	49	0.02851364247268
68	110570	50	0.034939319929109
42	4235	2	4.0827360368659
42	6021	3	5.9448203147458
42	6182	4	7.8112822050973
42	13349	5	9.8406935592368
42	16416	6	11.625082677016
42	18196	7	13.695987240602
42	18357	8	11.247075444202
42	20327	9	6.7726402747506
42	25564	10	4.1047045903712
42	30586	11	4.4308798699349
42	31191	12	6.5226500444801
42	33202	13	8.265600487002
42	33364	14	10.134958068073
42	40626	15	12.095851979345
42	43971	16	14.072570622087
42	45911	17	12.400464215397
42	46303	18	7.9062993733723
42	48305	19	6.9649475684291
42	53748	20	9.0895844682301
42	58756	21	10.399362253361
42	59079	22	11.450194669473
42	61220	23	13.502036250453
42	61543	24	15.332525604456
42	68426	25	15.567567280822
42	71470	26	11.34602054796
42	73428	27	6.8460205479597
42	73908	28	7.2360827368476
42	75777	29	8.9587558455907
42	80111	30	10.89116753849
42	84407	31	12.935978332081
42	84791	32	14.734286199617
42	86157	33	15.514378215929
42	86440	34	14.748212500265
42	90998	35	10.257799752047
42	93213	36	5.774095636684
42	94393	37	8.1175022435826
42	94720	38	10.181849586993
42	95762	39	10.650649659752
42	98357	40	12.350108043372
42	101231	41	14.246319972661
42	101342	42	15.556435491226
42	102376	43	15.546654826678
42	102587	44	15.573310959193
42	105010	45	15.522707346692
42	106939	46	15.528651814845
42	107816	47	15.584637257208
42	107917	48	15.565178648778
42	108668	49	15.593692291251
42	110570	50	15.62863161118
21	3	1	1108.4158015527
21	4235	2	1105.2142214171
21	6021	3	1100.1328215177
21	6182	4	1093.1296529722
21	13349	5	1084.2289752278
21	16416	6	1073.4245123146
21	18196	7	1060.6288074092
21	18357	8	1047.6153931808
21	20327	9	1038.8279788382
21	25564	10	1034.1390622378
21	30586	11	1036.3840823933
21	31191	12	1041.9765293146
21	33202	13	1049.5078523189
21	33364	14	1058.842842789
21	40626	15	1070.0304337786
21	43971	16	1083.1864674989
21	45911	17	1097.0937282788
21	46303	18	1107.0232771048
21	48305	19	1113.5256302147
21	53748	20	1121.3344206822
21	58756	21	1126.2743672874
21	59079	22	1126.6
21	61220	23	1126.6
21	61543	24	1126.6
21	68426	25	1126.6
21	71470	26	1126.6
21	73428	27	1126.6
21	73908	28	1126.6
21	75777	29	1126.6
21	80111	30	1126.6
21	84407	31	1126.6
21	84791	32	1126.6
21	86157	33	1126.6
21	86440	34	1126.6
21	90998	35	1126.6
21	93213	36	1126.6
21	94393	37	1126.2176277739
21	94720	38	1121.6431347828
21	95762	39	1111.5965823357
21	98357	40	1099.9854886394
21	101231	41	1086.6225188433
21	101342	42	1071.4411644414
21	102376	43	1055.8791744511
21	102587	44	1040.3183407437
21	105010	45	1024.7541095929
21	106939	46	1009.1884437666
21	107816	47	993.60971903087
21	107917	48	978.04107903892
21	108668	49	962.47841647581
21	110570	50	946.9099469598
20	3	1	1129.8
20	4235	2	1126.6
20	6021	3	1126.6
20	6182	4	1126.6
20	13349	5	1126.6
20	16416	6	1126.6
20	18196	7	1126.6
20	18357	8	1126.6
20	20327	9	1126.6
20	25564	10	1125.6781244756
20	30586	11	1123.4
20	31191	12	1123.4
20	33202	13	1123.4
20	33364	14	1123.4
20	40626	15	1123.4
20	43971	16	1123.4
20	45911	17	1123.4
20	46303	18	1123.4
20	48305	19	1123.4
20	53748	20	1125.0406524093
20	58756	21	1133.1205710118
20	59079	22	1143.9020507755
20	61220	23	1156.4221530815
20	61543	24	1170.9554679882
20	68426	25	1186.5206128288
20	71470	26	1199.8526776474
20	73428	27	1208.7236981953
20	73908	28	1215.0747249622
20	75777	29	1223.1939181863
20	80111	30	1233.2398218993
20	84407	31	1245.2949654138
20	84791	32	1259.2594410144
20	86157	33	1274.6403655622
20	86440	34	1290.0823209837
20	90998	35	1302.3581062809
20	93213	36	1310.1555723291
20	94393	37	1317.2766055825
20	94720	38	1324.7741191303
20	95762	39	1326.6
20	98357	40	1326.6
20	101231	41	1326.6
20	101342	42	1326.6
20	102376	43	1326.6
20	102587	44	1326.6
20	105010	45	1326.6
20	106939	46	1326.6
20	107816	47	1326.6
20	107917	48	1326.6
20	108668	49	1326.6
20	110570	50	1326.6
79	6021	3	5.7630413065055
79	6182	4	6.9117556471672
79	13349	5	8.0858119200642
79	16416	6	0.973
79	18196	7	0.973
79	18357	8	5.8840538555992
79	20327	9	3.6879602977073
79	25564	10	1.504722085408
79	30586	11	3.33842397297
79	31191	12	6.3777847642623
79	33202	13	7.9085925270085
79	33364	14	6.3432942715764
79	40626	15	1.8903883823258
79	43971	16	2.3766697645283
79	45911	17	0.973
79	46303	18	0.973
79	48305	19	0.973
79	53748	20	1.3539532845156
79	58756	21	1.35224441078
79	59079	22	6.1671610724626
79	61220	23	6.4414285053759
79	61543	24	7.6050895572345
79	68426	25	8.8459924880942
79	71470	26	2.4406230632553
79	73428	27	1.868143498087
79	73908	28	1.9484078571174
79	75777	29	2.0878143452552
79	80111	30	2.3627841624765
79	84407	31	1.7995107134147
79	84791	32	0.973
79	86157	33	0.973
79	86440	34	0.973
79	90998	35	6.4541182101325
79	93213	36	2.6827868876691
79	94393	37	1.6208931499364
79	94720	38	5.9294955048029
79	95762	39	7.9468142904868
79	98357	40	7.2691196776395
79	101231	41	2.0990882649634
79	101342	42	2.0648851908961
79	102376	43	1.9992309376708
79	102587	44	1.9551487304363
79	105010	45	2.2310606012747
79	106939	46	1.8699877244004
79	107816	47	1.9972110807026
79	107917	48	2.3726784354837
79	108668	49	1.8749128770082
79	110570	50	2.3337270060206
78	6021	3	1.9229406507546
78	6182	4	1.9582408912969
78	13349	5	1.9795673251641
78	16416	6	-3.4709277264926
78	18196	7	-3.7556846076407
78	18357	8	2.2691996040288
78	20327	9	0.96943954205163
78	25564	10	-0.045619126835373
78	30586	11	0.72810781844426
78	31191	12	1.6880700752838
78	33202	13	1.8768729782198
78	33364	14	1.2294285790321
78	40626	15	-0.053109045939054
78	43971	16	0.084544267489109
78	45911	17	-3.2474780611032
78	46303	18	-4.5
78	48305	19	-0.16937289494135
78	53748	20	-0.059058229904622
78	58756	21	-0.058443999108858
78	59079	22	2.211697160441
78	61220	23	1.8707168367342
78	61543	24	1.9167736627371
78	68426	25	1.9585777099053
78	71470	26	0.10199020486092
78	73428	27	-0.060836631006095
78	73908	28	-0.036664958638138
78	75777	29	0.003536985602695
78	80111	30	0.080132296073716
78	84407	31	-0.079815719388424
78	84791	32	-1.4761972843472
78	86157	33	-4.4558833718062
78	86440	34	-1.66
78	90998	35	2.2339039344667
78	93213	36	0.45606619561627
78	94393	37	-0.0098152600973851
78	94720	38	1.5694889946608
78	95762	39	1.9280798860267
78	98357	40	1.4910352082807
78	101231	41	0.0042890385142531
78	101342	42	-0.0053810455580248
78	102376	43	-0.023581753754987
78	102587	44	-0.035291936581489
78	105010	45	0.04293800999876
78	106939	46	-0.059447525995783
78	107816	47	-0.022033669701777
78	107917	48	0.083629632978699
78	108668	49	-0.058115682047791
78	110570	50	0.071927910083906
47	4235	2	7.0408791909716
47	6021	3	8.9638198417262
47	6182	4	10.922060733023
47	13349	5	12.901628058187
47	16416	6	9.4307003316946
47	18196	7	5.6750157240539
47	18357	8	7.9442153280827
47	20327	9	8.9136548701344
47	25564	10	8.868035743299
47	30586	11	9.5961435617433
47	31191	12	11.284213637027
47	33202	13	13.161086615247
47	33364	14	14.390515194279
47	40626	15	14.33740614834
47	43971	16	14.421950415829
47	45911	17	11.174472354726
47	46303	18	6.6744723547258
47	48305	19	6.5050994597844
47	53748	20	6.4460412298798
47	58756	21	6.3875972307709
47	59079	22	8.5992943912119
47	61220	23	10.470011227946
47	61543	24	12.386784890683
47	68426	25	14.345362600588
47	71470	26	14.447352805449
47	73428	27	14.386516174443
47	73908	28	14.349851215805
47	75777	29	14.353388201408
47	80111	30	14.433520497482
47	84407	31	14.353704778093
47	84791	32	12.877507493746
47	86157	33	8.4216241219397
47	86440	34	6.7616241219397
47	90998	35	8.9955280564064
47	93213	36	9.4515942520227
47	94393	37	9.4417789919253
47	94720	38	11.011267986586
47	95762	39	12.939347872613
47	98357	40	14.430383080893
47	101231	41	14.434672119408
47	101342	42	14.42929107385
47	102376	43	14.405709320095
47	102587	44	14.370417383513
47	105010	45	14.413355393512
47	106939	46	14.353907867516
47	107816	47	14.331874197814
47	107917	48	14.415503830793
47	108668	49	14.357388148745
47	110570	50	14.429316058829
31	3	1	1105.4949120752
31	4235	2	1099.3350316864
31	6021	3	1091.2467968029
31	6182	4	1081.2019931484
31	13349	5	1069.1678380649
31	16416	6	1057.7593969668
31	18196	7	1050.7071695136
31	18357	8	1043.8056024577
31	20327	9	1036.9465511753
31	25564	10	1036.9410430798
31	30586	11	1040.0520224985
31	31191	12	1047.4737561026
31	33202	13	1056.1660653335
31	33364	14	1066.1157820514
31	40626	15	1076.2911149744
31	43971	16	1086.4734048435
31	45911	17	1095.7219090961
31	46303	18	1101.8733324037
31	48305	19	1106.3815273155
31	53748	20	1108.2888786023
31	58756	21	1102.1820670189
31	59079	22	1094.5184829599
31	61220	23	1084.9291191837
31	61543	24	1073.4101927558
31	68426	25	1059.8958239805
31	71470	26	1045.4911248996
31	73428	27	1031.1086815895
31	73908	28	1016.7163960943
31	75777	29	1002.3212794778
31	80111	30	987.94078085518
31	84407	31	973.55285462221
31	84791	32	959.48253895012
31	86157	33	949.06415576835
31	86440	34	942.40753164641
31	90998	35	934.43202743071
31	93213	36	928.48882380201
31	94393	37	930.45260935007
31	94720	38	934.997287542
31	95762	39	940.40510518981
31	98357	40	946.66427432675
31	101231	41	953.09859293252
31	101342	42	959.53368458753
31	102376	43	965.97279918494
31	102587	44	972.41738746903
31	105010	45	978.85273647265
31	106939	46	985.29050469008
31	107816	47	991.72947563423
31	107917	48	998.15969869008
31	108668	49	1004.5973459756
31	110570	50	1011.0457027409
30	3	1	929.8
30	4235	2	926.6
30	6021	3	926.6
30	6182	4	926.6
30	13349	5	926.6
30	16416	6	926.6
30	18196	7	926.6
30	18357	8	925.71524640553
30	20327	9	920.99407881322
30	25564	10	912.63073980288
30	30586	11	903.15797750147
30	31191	12	895.73624389737
30	33202	13	887.0439346665
30	33364	14	877.09421794858
30	40626	15	866.91888502565
30	43971	16	856.73659515648
30	45911	17	847.48809090388
30	46303	18	841.33666759627
30	48305	19	836.6935774946
30	53748	20	831.27500396631
30	58756	21	829.8
30	59079	22	826.6
30	61220	23	826.6
30	61543	24	826.6
30	68426	25	826.6
30	71470	26	826.6
30	73428	27	826.6
30	73908	28	826.6
30	75777	29	826.6
30	80111	30	826.6
30	84407	31	826.6
30	84791	32	826.6
30	86157	33	826.6
30	86440	34	826.6
30	90998	35	825.75576182518
30	93213	36	819.60359185543
30	94393	37	810.59675517396
30	94720	38	801.4259428439
30	95762	39	790.61093592589
30	98357	40	778.09332495495
30	101231	41	765.22543539838
30	101342	42	752.35599983314
30	102376	43	739.47851885058
30	102587	44	726.59009113067
30	105010	45	713.72014089811
30	106939	46	700.84535251907
30	107816	47	687.96815882631
30	107917	48	675.10845989368
30	108668	49	662.2339133644
30	110570	50	649.33794911988
63	6021	3	5.7804148208947
63	6182	4	5.7881844088016
63	13349	5	1.7298327971645
63	16416	6	1.7891426010233
63	18196	7	1.6234580580906
63	18357	8	2.0052773985533
63	20327	9	1.6298391508441
63	25564	10	1.8395602124334
63	30586	11	1.647197019662
63	31191	12	1.5676472722081
63	33202	13	1.8359141973477
63	33364	14	1.6046298233457
63	40626	15	0.973
63	43971	16	0.973
63	45911	17	5.3307256150689
63	46303	18	1.5675513512076
63	48305	19	1.5832328463482
63	53748	20	2.8251737503707
63	58756	21	5.125753626005
63	59079	22	1.9094635953913
63	61220	23	1.762226390429
63	61543	24	1.577124052454
63	68426	25	1.8566744434745
63	71470	26	1.7512325411619
63	73428	27	0.973
63	73908	28	0.973
63	75777	29	1.3614375598779
63	80111	30	2.9986763687844
63	84407	31	5.5392924870205
63	84791	32	6.4048027546661
63	86157	33	3.0602512913819
63	86440	34	1.7588338959362
63	90998	35	1.5613600448928
63	93213	36	1.8945057824827
63	94393	37	1.4877090925629
63	94720	38	1.9053561878371
63	95762	39	1.7913484461746
63	98357	40	1.4868953373285
63	101231	41	2.0522320780755
63	101342	42	1.4285108858985
63	102376	43	1.894115324867
63	102587	44	1.5862334978848
63	105010	45	1.840164490637
63	106939	46	1.8270888530285
63	107816	47	1.5277868884801
63	107917	48	0.973
63	108668	49	0.973
63	110570	50	6.1970701614934
63	113043	51	3.6892141108388
63	113225	52	1.5050651589554
63	113864	53	1.7113479725792
63	114073	54	1.8503973917648
63	116040	55	1.7150869138422
63	116911	56	1.6471381004115
63	117419	57	1.940684147046
63	117501	58	1.7214769084896
63	118008	59	1.5770264754655
62	6021	3	1.9473951346008
62	6182	4	1.6056066772008
62	13349	5	0.0023283688211819
62	16416	6	0.024917254408356
62	18196	7	-0.039290925059468
62	18357	8	0.10726506561041
62	20327	9	-0.038656590965111
62	25564	10	0.042262090297882
62	30586	11	-0.032120936787688
62	31191	12	-0.061792217704934
62	33202	13	0.042631760598161
62	33364	14	-0.047071212497539
62	40626	15	-2.7057319895919
62	43971	16	-0.93904266555187
62	45911	17	1.7948042754184
62	46303	18	-0.0092014677939005
62	48305	19	-0.0016214249213213
62	53748	20	0.54227347981883
62	58756	21	1.3403758461329
62	59079	22	0.069868787538727
62	61220	23	0.011829540776088
62	61543	24	-0.059073601560666
62	68426	25	0.049129165881313
62	71470	26	0.0076035360037352
62	73428	27	-2.9795138514555
62	73908	28	-2.6496568701649
62	75777	29	0
62	80111	30	1.0798221306852
62	84407	31	2.0437312683067
62	84791	32	1.9477532296372
62	86157	33	0.52259085742303
62	86440	34	0.011345924229827
62	90998	35	-0.064483870645054
62	93213	36	0.064545408482664
62	94393	37	-0.092910708717536
62	94720	38	0.069674870222807
62	95762	39	0.024066279369871
62	98357	40	-0.09324370699469
62	101231	41	0.12499619579408
62	101342	42	-0.11651002677158
62	102376	43	0.065093193880747
62	102587	44	-0.054443787198979
62	105010	45	0.04425882971147
62	106939	46	0.037804413198028
62	107816	47	-0.077627811415587
62	107917	48	-2.4037112674366
62	108668	49	-0.20349162284246
62	110570	50	1.9127696852479
62	113043	51	0.76783742406294
62	113225	52	-0.086300705263856
62	113864	53	-0.0046382802259188
62	114073	54	0.048595343891066
62	116040	55	-0.0045159981772294
62	116911	56	-0.030410602418707
62	117419	57	0.082281361143105
62	117501	58	-0.0034920361335384
62	118008	59	-0.058610067639966
39	4235	2	6.9507267709472
39	6021	3	8.898121905548
39	6182	4	10.503728582749
39	13349	5	10.50605695157
39	16416	6	10.530974205978
39	18196	7	10.491683280919
39	18357	8	10.598948346529
39	20327	9	10.560291755564
39	25564	10	10.602553845862
39	30586	11	10.570432909074
39	31191	12	10.508640691369
39	33202	13	10.551272451968
39	33364	14	10.50420123947
39	40626	15	7.7984692498782
39	43971	16	6.8594265843263
39	45911	17	8.6542308597447
39	46303	18	8.6450293919508
39	48305	19	8.6434079670295
39	53748	20	9.1856814468483
39	58756	21	10.526057292981
39	59079	22	10.59592608052
39	61220	23	10.607755621296
39	61543	24	10.548682019735
39	68426	25	10.597811185617
39	71470	26	10.60541472162
39	73428	27	7.6259008701649
39	73908	28	4.976244
39	75777	29	4.976244
39	80111	30	6.0560661306852
39	84407	31	8.0997973989919
39	84791	32	10.047550628629
39	86157	33	10.570141486052
39	86440	34	10.581487410282
39	90998	35	10.517003539637
39	93213	36	10.58154894812
39	94393	37	10.488638239402
39	94720	38	10.558313109625
39	95762	39	10.582379388995
39	98357	40	10.489135682
39	101231	41	10.614131877794
39	101342	42	10.497621851023
39	102376	43	10.562715044903
39	102587	44	10.508271257704
39	105010	45	10.552530087416
39	106939	46	10.590334500614
39	107816	47	10.512706689198
39	107917	48	8.1089954217616
39	108668	49	7.9055037989192
39	110570	50	9.8182734841671
39	113043	51	10.58611090823
39	113225	52	10.499810202966
39	113864	53	10.49517192274
39	114073	54	10.543767266631
39	116040	55	10.539251268454
39	116911	56	10.508840666035
39	117419	57	10.591122027178
39	117501	58	10.587629991045
39	118008	59	10.529019923405
15	3	1	1220.2
15	4235	2	1223.4
15	6021	3	1223.4
15	6182	4	1223.4
15	13349	5	1223.4
15	16416	6	1223.4
15	18196	7	1223.4
15	18357	8	1223.4
15	20327	9	1223.4
15	25564	10	1223.4
15	30586	11	1223.4
15	31191	12	1223.4
15	33202	13	1223.4
15	33364	14	1223.4
15	40626	15	1223.4
15	43971	16	1223.4
15	45911	17	1223.9011757412
15	46303	18	1225.6309066303
15	48305	19	1230.2423303817
15	53748	20	1238.7406930484
15	58756	21	1248.8844001257
15	59079	22	1259.450561814
15	61220	23	1270.0146719045
15	61543	24	1280.5521030196
15	68426	25	1291.0915358281
15	71470	26	1301.6288358122
15	73428	27	1311.0649887852
15	73908	28	1316.6879323386
15	75777	29	1319.924896046
15	80111	30	1320.2
15	84407	31	1320.2
15	84791	32	1320.2
15	86157	33	1320.2
15	86440	34	1320.2
15	90998	35	1320.2
15	93213	36	1320.2
15	94393	37	1320.2
15	94720	38	1320.2
15	95762	39	1320.2
15	98357	40	1320.2
15	101231	41	1320.2
15	101342	42	1320.2
15	102376	43	1320.2
15	102587	44	1320.2
15	105010	45	1320.2
15	106939	46	1320.197805434
15	107816	47	1319.6299756306
15	107917	48	1317.6055131849
15	108668	49	1314.1956984092
15	110570	50	1307.869289506
15	113043	51	1300.473955954
15	113225	52	1293.0105721706
15	113864	53	1285.5312417991
15	114073	54	1278.0704566621
15	116040	55	1270.6094350015
15	116911	56	1263.1473233435
15	117419	57	1255.6984868493
15	117501	58	1248.2300329073
15	118008	59	1240.7765136902
14	3	1	793.68425913429
14	4235	2	787.65630741644
14	6021	3	779.63811972225
14	6182	4	769.75388029714
14	13349	5	759.20858941103
14	16416	6	748.65261713844
14	18196	7	738.07857067645
14	18357	8	727.51901401755
14	20327	9	716.95793029153
14	25564	10	706.39503786317
14	30586	11	695.85430899554
14	31191	12	685.30970148664
14	33202	13	674.75954395232
14	33364	14	664.21666743011
14	40626	15	654.66998920067
14	43971	16	648.27275408324
14	45911	17	640.29695133907
14	46303	18	631.91997179476
14	48305	19	624.86379575833
14	53748	20	620.2
14	58756	21	620.2
14	59079	22	620.2
14	61220	23	620.2
14	61543	24	620.2
14	68426	25	620.2
14	71470	26	620.2
14	73428	27	620.2
14	73908	28	619.90172395163
14	75777	29	616.52572767769
14	80111	30	611.17136629366
14	84407	31	604.01579981227
14	84791	32	594.87191711134
14	86157	33	584.36851163042
14	86440	34	573.80184137783
14	90998	35	563.25877508882
14	93213	36	552.70239967153
14	94393	37	542.17291482789
14	94720	38	531.63717399353
14	95762	39	521.07608176356
14	98357	40	510.54068817897
14	101231	41	499.9642452224
14	101342	42	489.42493605858
14	102376	43	478.89544218853
14	102587	44	468.33518962118
14	105010	45	457.7849400368
14	106939	46	447.22513585064
14	107816	47	436.69769482556
14	107917	48	427.20903474553
14	108668	49	420.98569840924
14	110570	50	414.65928950605
14	113043	51	407.26395595398
14	113225	52	399.80057217059
14	113864	53	392.32124179914
14	114073	54	384.86045666213
14	116040	55	377.39943500152
14	116911	56	369.93732334352
14	117419	57	362.48848684927
14	117501	58	355.0200329073
14	118008	59	347.56651369025
55	6021	3	4.2187116233698
55	6182	4	5.6672024650099
55	13349	5	6.4829824105063
55	16416	6	8.122009853675
55	18196	7	8.1122381338429
55	18357	8	2.3307127299824
55	20327	9	1.8415391825935
55	25564	10	2.1615774115403
55	30586	11	2.1123362853147
55	31191	12	1.7100011739415
55	33202	13	2.0356544606351
55	33364	14	2.0548432795822
55	40626	15	2.2205230275462
55	43971	16	1.9076159588221
55	45911	17	0.973
55	46303	18	0.973
55	48305	19	0.973
55	53748	20	6.8503972594567
55	58756	21	0.973
55	59079	22	0.973
55	61220	23	6.2049772694244
55	61543	24	7.1901962369121
55	68426	25	7.8771924551585
55	71470	26	4.6775283767223
55	73428	27	0.973
55	73908	28	0.973
55	75777	29	6.0739893330591
55	80111	30	5.7033027419063
55	84407	31	7.205973527823
55	84791	32	9.0705029387253
55	86157	33	3.144322716247
55	86440	34	2.1961674042313
55	90998	35	0.973
55	93213	36	0.973
55	94393	37	6.3338609978965
55	94720	38	6.1963767162123
55	95762	39	7.7264411160672
55	98357	40	7.9276463362942
55	101231	41	2.1581566212886
55	101342	42	1.7073486540747
55	102376	43	2.4138227225652
55	102587	44	1.8521144944103
55	105010	45	0.973
55	106939	46	1.153723288855
55	107816	47	0.973
55	107917	48	0.973
55	108668	49	7.535845628858
55	110570	50	9.373455901962
55	113043	51	3.3786865468066
55	113225	52	1.8935190460643
55	113864	53	1.8935190460643
55	114073	54	1.8935190460643
55	116040	55	1.8935190460643
55	116911	56	1.8935190460643
55	117419	57	1.8935190460643
55	117501	58	1.8935190460643
55	118008	59	1.8935190460643
55	119438	60	1.8935190460643
55	120740	61	1.8935190460643
55	120811	62	1.8935190460643
55	121296	63	1.8935190460643
55	121447	64	1.8935190460643
55	122838	65	1.8935190460643
54	6021	3	1.929509416623
54	6182	4	2.103097601193
54	13349	5	1.9701647592476
54	16416	6	2.1244989567948
54	18196	7	1.7979333100165
54	18357	8	0.082993202291268
54	20327	9	-0.059445991136601
54	25564	10	0.034040053503123
54	30586	11	0.018918277248741
54	31191	12	-0.097290988191963
54	33202	13	-0.00070011078147125
54	33364	14	0.0048415844002729
54	40626	15	0.052174394000321
54	43971	16	-0.039163737872149
54	45911	17	-0.4685504409293
54	46303	18	-4.4726668727578
54	48305	19	-1.66
54	53748	20	2.2343227563705
54	58756	21	-0.6652513464865
54	59079	22	-1.6338365541864
54	61220	23	2.0231824779627
54	61543	24	1.9749398323265
54	68426	25	1.8599740608898
54	71470	26	0.78334170520649
54	73428	27	-3.9886978840207
54	73908	28	-4.5
54	75777	29	2.3883049545507
54	80111	30	1.7437581999041
54	84407	31	1.9358442005049
54	84791	32	2.1383994938224
54	86157	33	0.3260931375118
54	86440	34	0.044169604901692
54	90998	35	-3.3473185185827
54	93213	36	-4.4824890038287
54	94393	37	2.3069339551381
54	94720	38	1.7982515618228
54	95762	39	1.9703099423856
54	98357	40	1.7367681389074
54	101231	41	0.032473631410394
54	101342	42	-0.098016587430612
54	102376	43	0.10741805313621
54	102587	44	-0.056426775928122
54	105010	45	-1.5399653231418
54	106939	46	-0.2429622230196
54	107816	47	-4.5
54	107917	48	-0.95
54	108668	49	2.6
54	110570	50	2.6
54	113043	51	0.4929622230196
54	113225	52	0
54	113864	53	0
54	114073	54	0
54	116040	55	0
54	116911	56	0
54	117419	57	0
54	117501	58	0
54	118008	59	0
54	119438	60	0
54	120740	61	0
54	120811	62	0
54	121296	63	0
54	121447	64	0
54	122838	65	0
35	4235	2	4.0881628732041
35	6021	3	6.0176722898271
35	6182	4	8.1207698910201
35	13349	5	10.090934650268
35	16416	6	12.215433607062
35	18196	7	14.013366917079
35	18357	8	14.09636011937
35	20327	9	14.036914128234
35	25564	10	14.070954181737
35	30586	11	14.089872458986
35	31191	12	13.992581470794
35	33202	13	13.991881360012
35	33364	14	13.996722944412
35	40626	15	14.048897338413
35	43971	16	14.009733600541
35	45911	17	13.541183159611
35	46303	18	9.0685162868534
35	48305	19	7.4085162868534
35	53748	20	9.642839043224
35	58756	21	8.9775876967374
35	59079	22	7.343751142551
35	61220	23	9.3669336205137
35	61543	24	11.34187345284
35	68426	25	13.20184751373
35	71470	26	13.985189218936
35	73428	27	9.9964913349158
35	73908	28	5.4964913349158
35	75777	29	7.8847962894665
35	80111	30	9.6285544893706
35	84407	31	11.564398689876
35	84791	32	13.702798183698
35	86157	33	14.02889132121
35	86440	34	14.073060926111
35	90998	35	10.725742407529
35	93213	36	6.2432534037
35	94393	37	8.5501873588381
35	94720	38	10.348438920661
35	95762	39	12.318748863047
35	98357	40	14.055517001954
35	101231	41	14.087990633364
35	101342	42	13.989974045934
35	102376	43	14.09739209907
35	102587	44	14.040965323142
35	105010	45	12.501
35	106939	46	12.25803777698
35	107816	47	7.7580377769804
35	107917	48	6.8080377769804
35	108668	49	9.4080377769804
35	110570	50	12.00803777698
35	113043	51	12.501
35	113225	52	12.501
35	113864	53	12.501
35	114073	54	12.501
35	116040	55	12.501
35	116911	56	12.501
35	117419	57	12.501
35	117501	58	12.501
35	118008	59	12.501
35	119438	60	12.501
35	120740	61	12.501
35	120811	62	12.501
35	121296	63	12.501
35	121447	64	12.501
35	122838	65	12.501
7	3	1	1236.2001835338
7	4235	2	1238.968485251
7	6021	3	1243.5930109492
7	6182	4	1250.032605709
7	13349	5	1256.8329035298
7	16416	6	1266.8920540384
7	18196	7	1278.6931626562
7	18357	8	1291.2302786484
7	20327	9	1303.7887228994
7	25564	10	1316.3318407419
7	30586	11	1328.8882507201
7	31191	12	1341.4291964278
7	33202	13	1353.9780366473
7	33364	14	1366.5187458591
7	40626	15	1379.0770196068
7	43971	16	1391.6455222118
7	45911	17	1404.1488623846
7	46303	18	1414.0662630306
7	48305	19	1420.3522065075
7	53748	20	1424.6926388312
7	58756	21	1426.2176899746
7	59079	22	1426.5370411195
7	61220	23	1426.6
7	61543	24	1429.8
7	68426	25	1429.8
7	71470	26	1429.8
7	73428	27	1429.8
7	73908	28	1429.8
7	75777	29	1429.8
7	80111	30	1429.8
7	84407	31	1429.8
7	84791	32	1429.8
7	86157	33	1429.8
7	86440	34	1429.8
7	90998	35	1429.8
7	93213	36	1429.8
7	94393	37	1429.9377988253
7	94720	38	1430.7238553792
7	95762	39	1434.0638331415
7	98357	40	1440.7912853732
7	101231	41	1450.7186777474
7	101342	42	1460.6428975692
7	102376	43	1470.5688929239
7	102587	44	1480.499816717
7	105010	45	1489.4750233577
7	106939	46	1498.297294403
7	107816	47	1505.2148755569
7	107917	48	1509.7035699166
7	108668	49	1515.2818689044
7	110570	50	1521.8596353418
7	113043	51	1526.2915275142
7	113225	52	1526.6
7	113864	53	1526.6
7	114073	54	1526.6
7	116040	55	1526.6
7	116911	56	1526.6
7	117419	57	1526.6
7	117501	58	1526.6
7	118008	59	1526.6
7	119438	60	1526.6
7	120740	61	1526.6
7	120811	62	1526.6
7	121296	63	1526.6
7	121447	64	1526.6
7	122838	65	1526.6
6	3	1	1025.2350917669
6	4235	2	1026.6192426255
6	6021	3	1028.9315054746
6	6182	4	1032.1513028545
6	13349	5	1039.1264517649
6	16416	6	1044.1560270192
6	18196	7	1050.0565813281
6	18357	8	1056.3251393242
6	20327	9	1062.6043614497
6	25564	10	1068.8759203709
6	30586	11	1075.1541253601
6	31191	12	1081.4245982139
6	33202	13	1087.6990183236
6	33364	14	1093.9693729296
6	40626	15	1100.2485098034
6	43971	16	1106.5327611059
6	45911	17	1112.7844311923
6	46303	18	1117.7431315153
6	48305	19	1121.3725673173
6	53748	20	1128.7241980663
6	58756	21	1138.6281579029
6	59079	22	1145.8552131601
6	61220	23	1154.3696297257
6	61543	24	1164.8173764539
6	68426	25	1177.1154312526
6	71470	26	1190.9933062632
6	73428	27	1202.9912464696
6	73908	28	1210.5127378045
6	75777	29	1217.3836824249
6	80111	30	1226.2528922695
6	84407	31	1236.9227141462
6	84791	32	1249.6397996024
6	86157	33	1263.6560961298
6	86440	34	1277.6999957826
6	90998	35	1290.3370235987
6	93213	36	1298.5953585401
6	94393	37	1306.1649706322
6	94720	38	1315.6590724366
6	95762	39	1326.4502054836
6	98357	40	1338.5212853732
6	101231	41	1348.4486777474
6	101342	42	1358.3728975692
6	102376	43	1368.2988929239
6	102587	44	1378.229816717
6	105010	45	1387.2050233577
6	106939	46	1396.027294403
6	107816	47	1402.9448755569
6	107917	48	1407.4335699166
6	108668	49	1413.4958333942
6	110570	50	1422.0905113794
6	113043	51	1433.6133029287
6	113225	52	1446.0881528878
6	113864	53	1458.5891528878
6	114073	54	1471.0901528878
6	116040	55	1483.5911528878
6	116911	56	1496.0921528878
6	117419	57	1508.5931528878
6	117501	58	1521.0941528878
6	118008	59	1533.5951528878
6	119438	60	1546.0961528878
6	120740	61	1558.5971528878
6	120811	62	1571.0981528878
6	121296	63	1583.5991528878
6	121447	64	1596.1001528878
6	122838	65	1608.6011528878
61	6021	3	4.3099563385805
61	6182	4	5.0815035348559
61	13349	5	6.4902239056201
61	16416	6	7.4794918494436
61	18196	7	5.8591359375249
61	18357	8	1.7436625336201
61	20327	9	2.0975504820276
61	25564	10	2.0888871228731
61	30586	11	0.973
61	31191	12	0.973
61	33202	13	1.4099441899275
61	33364	14	1.5974920473423
61	40626	15	5.4459249099486
61	43971	16	6.4098962551555
61	45911	17	7.1263338767363
61	46303	18	6.0174440915869
61	48305	19	1.7468513387818
61	53748	20	1.8716958037228
61	58756	21	1.9437051424895
61	59079	22	1.9314507647714
61	61220	23	2.1007608433542
61	61543	24	1.7835192376436
61	68426	25	1.9557715640534
61	71470	26	0.973
61	73428	27	0.973
61	73908	28	5.8162912578309
61	75777	29	5.5618376020067
61	80111	30	6.6295956774434
61	84407	31	7.7697680302967
61	84791	32	1.9012091579137
61	86157	33	2.1342217428851
61	86440	34	1.9656855829617
61	90998	35	1.7468444638818
61	93213	36	2.1483092700503
61	94393	37	1.7910600383826
61	94720	38	0.973
61	95762	39	0.973
61	98357	40	6.355858464728
61	101231	41	6.2240181946013
61	101342	42	7.1834744102375
61	102376	43	5.4301719304767
61	102587	44	2.1888818370909
61	105010	45	1.6977392991231
61	106939	46	1.9591459519571
61	107816	47	1.9541407623196
61	107917	48	0.973
61	108668	49	0.973
61	110570	50	5.7637423118063
61	113043	51	6.0035185775714
61	113225	52	7.2174372247121
61	113864	53	5.6805721888557
61	114073	54	1.8733208346725
61	116040	55	1.794810519431
61	116911	56	1.9266450984195
61	117419	57	1.9389948040096
61	117501	58	2.3430816990942
61	118008	59	1.8749467205342
61	119438	60	1.7596936188686
61	120740	61	2.0629097103578
61	120811	62	1.8677563446068
61	121296	63	2.0832120570146
61	121447	64	1.8638812031994
61	122838	65	1.8393286337325
61	123705	66	1.840127608869
60	6021	3	2.0117065166635
60	6182	4	1.8772748762951
60	13349	5	2.0247747566015
60	16416	6	1.9772350333398
60	18196	7	1.2401263543192
60	18357	8	-0.063261417460163
60	20327	9	0.047868680581452
60	25564	10	0.043645969843491
60	30586	11	-4.370151218034
60	31191	12	-2.8630705849338
60	33202	13	-0.0017110898578538
60	33364	14	0.12304725751746
60	40626	15	2.0183943555993
60	43971	16	1.9641599566815
60	45911	17	1.854696655299
60	46303	18	1.2853174351158
60	48305	19	-0.063240105863661
60	53748	20	-0.022924068395513
60	58756	21	-7.3189497928894e-006
60	59079	22	-0.0037932143756194
60	61220	23	0.048451297194697
60	61543	24	-0.050822531655431
60	68426	25	0.0039020714536306
60	71470	26	-3.1644323109994
60	73428	27	-4.4500800030433
60	73908	28	2.3045150065608
60	75777	29	1.7209770730603
60	80111	30	1.7896527846111
60	84407	31	1.8464011386649
60	84791	32	-0.014419930875302
60	86157	33	0.057558778268286
60	86440	34	0.0041549564618624
60	90998	35	-0.063388776509091
60	93213	36	0.061917908897158
60	94393	37	-0.049673495311291
60	94720	38	-2.9099507014363
60	95762	39	-4.4538098916072
60	98357	40	2.4425024486845
60	101231	41	1.8760385505971
60	101342	42	1.863713325581
60	102376	43	1.1127582836769
60	102587	44	0.076262883925811
60	105010	45	-0.077574583077803
60	106939	46	0.0056295449472969
60	107816	47	0.0039138316852032
60	107917	48	-3.8458341532514
60	108668	49	-3.0588305478128
60	110570	50	2.1192172300862
60	113043	51	1.787608941677
60	113225	52	1.8757623333624
60	113864	53	1.1840870500347
60	114073	54	-0.022963163310196
60	116040	55	-0.04666460953653
60	116911	56	-0.0044867116631924
60	117419	57	-0.00053082667058391
60	117501	58	0.12345045775175
60	118008	59	-0.023816779744811
60	119438	60	-0.058790501568001
60	120740	61	0.036433640809264
60	120811	62	-0.024755271812902
60	121296	63	0.042283605476841
60	121447	64	-0.026435706468764
60	122838	65	-0.03330334449187
60	123705	66	-0.032153874014039
38	4235	2	3.9544707769432
38	6021	3	5.9661772936067
38	6182	4	7.8434521699018
38	13349	5	9.8682269265034
38	16416	6	11.845461959843
38	18196	7	13.085588314162
38	18357	8	13.022326896702
38	20327	9	13.070195577284
38	25564	10	13.113841547127
38	30586	11	8.7436903290932
38	31191	12	5.8806197441594
38	33202	13	5.8789086543015
38	33364	14	6.001955911819
38	40626	15	8.0203502674183
38	43971	16	9.9845102240998
38	45911	17	11.839206879399
38	46303	18	13.124524314515
38	48305	19	13.061284208651
38	53748	20	13.038360140256
38	58756	21	13.038352821306
38	59079	22	13.03455960693
38	61220	23	13.083010904125
38	61543	24	13.032188372469
38	68426	25	13.036090443923
38	71470	26	9.8716581329236
38	73428	27	5.4215781298802
38	73908	28	7.7260931364411
38	75777	29	9.4470702095014
38	80111	30	11.236722994113
38	84407	31	13.083124132777
38	84791	32	13.068704201902
38	86157	33	13.12626298017
38	86440	34	13.130417936632
38	90998	35	13.067029160123
38	93213	36	13.12894706902
38	94393	37	13.079273573709
38	94720	38	10.169322872273
38	95762	39	5.7155129806655
38	98357	40	8.1580154293501
38	101231	41	10.034053979947
38	101342	42	11.897767305528
38	102376	43	13.010525589205
38	102587	44	13.086788473131
38	105010	45	13.009213890053
38	106939	46	13.014843435
38	107816	47	13.018757266686
38	107917	48	9.1729231134343
38	108668	49	6.1140925656215
38	110570	50	8.2333097957077
38	113043	51	10.020918737385
38	113225	52	11.896681070747
38	113864	53	13.080768120782
38	114073	54	13.057804957472
38	116040	55	13.011140347935
38	116911	56	13.006653636272
38	117419	57	13.006122809601
38	117501	58	13.129573267353
38	118008	59	13.105756487608
38	119438	60	13.04696598604
38	120740	61	13.08339962685
38	120811	62	13.058644355037
38	121296	63	13.100927960513
38	121447	64	13.074492254045
38	122838	65	13.041188909553
38	123705	66	13.009035035539
13	3	1	1240.6082035103
13	4235	2	1242.8002134529
13	6021	3	1246.3241207809
13	6182	4	1251.2200822278
13	13349	5	1257.5056294907
13	16416	6	1265.2882015042
13	18196	7	1274.2651105846
13	18357	8	1283.5177238274
13	20327	9	1292.7732101339
13	25564	10	1302.0166232651
13	30586	11	1309.5947040009
13	31191	12	1314.4715398828
13	33202	13	1319.2569191214
13	33364	14	1320.2
13	40626	15	1320.2
13	43971	16	1320.2
13	45911	17	1320.2
13	46303	18	1320.2
13	48305	19	1320.2
13	53748	20	1320.2
13	58756	21	1320.2
13	59079	22	1320.2
13	61220	23	1320.2
13	61543	24	1320.2
13	68426	25	1320.2
13	71470	26	1320.2
13	73428	27	1320.2
13	73908	28	1320.0205969535
13	75777	29	1319.453476025
13	80111	30	1317.187140362
13	84407	31	1311.5431329789
13	84791	32	1302.8358840091
13	86157	33	1293.5942134479
13	86440	34	1284.3435029585
13	90998	35	1275.102902595
13	93213	36	1265.8691562599
13	94393	37	1256.6238769979
13	94720	38	1248.171264169
13	95762	39	1242.69942151
13	98357	40	1237.5985016717
13	101231	41	1230.7334252995
13	101342	42	1221.34247816
13	102376	43	1208.8336793872
13	102587	44	1195.7732864404
13	105010	45	1182.6977657571
13	106939	46	1169.6250505148
13	107816	47	1156.5491499083
13	107917	48	1145.3786011857
13	108668	49	1138.4528594558
13	110570	50	1131.07260682
13	113043	51	1121.9558321935
13	113225	52	1111.9504395303
13	113864	53	1100.5440621177
13	114073	54	1088.8506446383
13	116040	55	1077.1801431084
13	116911	56	1065.4927433781
13	117419	57	1053.8157926499
13	117501	58	1042.1079959728
13	118008	59	1030.4106872661
13	119438	60	1018.7392025436
13	120740	61	1007.048566518
13	120811	62	995.36926903298
13	121296	63	983.69155070869
13	121447	64	971.99068780659
13	122838	65	960.29717865024
13	123705	66	948.61007373917
12	3	1	1833.8182035103
12	4235	2	1836.0102134529
12	6021	3	1839.5341207809
12	6182	4	1844.4300822278
12	13349	5	1850.7156294907
12	16416	6	1858.4982015042
12	18196	7	1867.4751105846
12	18357	8	1876.7277238274
12	20327	9	1885.9832101339
12	25564	10	1895.2266232651
12	30586	11	1902.8047040009
12	31191	12	1907.3108052237
12	33202	13	1907.5696586527
12	33364	14	1901.8786805973
12	40626	15	1894.7697611906
12	43971	16	1885.6354328792
12	45911	17	1874.6141689023
12	46303	18	1861.9356565785
12	48305	19	1848.878736161
12	53748	20	1835.8036478457
12	58756	21	1822.7564244678
12	59079	22	1809.7059959335
12	61220	23	1796.6498441973
12	61543	24	1783.5871076173
12	68426	25	1770.5154060542
12	71470	26	1758.7384741293
12	73428	27	1751.3168559979
12	73908	28	1744.5393824088
12	75777	29	1735.8758640137
12	80111	30	1725.681657711
12	84407	31	1714.8190604113
12	84791	32	1705.1058840091
12	86157	33	1695.8642134479
12	86440	34	1686.6135029585
12	90998	35	1677.372902595
12	93213	36	1668.1391562599
12	94393	37	1658.8938769979
12	94720	38	1650.441264169
12	95762	39	1644.96942151
12	98357	40	1640.0348801349
12	101231	41	1634.0454421984
12	101342	42	1628.2980148369
12	102376	43	1626.6
12	102587	44	1626.6
12	105010	45	1626.6
12	106939	46	1626.6
12	107816	47	1626.6
12	107917	48	1626.6
12	108668	49	1626.6
12	110570	50	1626.3908509625
12	113043	51	1625.0259968743
12	113225	52	1620.3690795491
12	113864	53	1614.5570310589
12	114073	54	1608.7103223191
12	116040	55	1602.8750715542
12	116911	56	1597.0313716891
12	117419	57	1591.1928963249
12	117501	58	1585.3389979864
12	118008	59	1579.4903436331
12	119438	60	1573.6546012718
12	120740	61	1567.809283259
12	120811	62	1561.9696345165
12	121296	63	1556.1307753543
12	121447	64	1550.2803439033
12	122838	65	1544.4335893251
12	123705	66	1538.5900368696
65	6021	3	4.5082277903388
65	6182	4	5.1074116792575
65	13349	5	6.8475325888678
65	16416	6	8.0684913665117
65	18196	7	8.8823955080037
65	18357	8	0.973
65	20327	9	0.973
65	25564	10	0.973
65	30586	11	1.2759712474737
65	31191	12	4.0724158108077
65	33202	13	5.7987225984527
65	33364	14	6.7916202146715
65	40626	15	7.2720576690917
65	43971	16	8.7988310977419
65	45911	17	0.973
65	46303	18	0.973
65	48305	19	0.973
65	53748	20	5.9505456114835
65	58756	21	4.5961704665573
65	59079	22	4.2658259909344
65	61220	23	7.1689351403564
65	61543	24	9.1562617619139
65	68426	25	2.2679302233507
65	71470	26	2.4345584607848
65	73428	27	2.1239135680722
65	73908	28	1.9894452023535
65	75777	29	2.234270490926
65	80111	30	2.0738939446586
65	84407	31	1.7469353450774
65	84791	32	2.3049667707611
65	86157	33	0.973
65	86440	34	0.973
65	90998	35	0.973
65	93213	36	3.1216754690486
65	94393	37	4.4620369264377
65	94720	38	6.5430376430334
65	95762	39	8.0250604626885
65	98357	40	7.8932752508544
65	101231	41	3.9254169133117
65	101342	42	2.1458721784686
65	102376	43	2.2705124723954
65	102587	44	1.8831323831885
65	105010	45	2.2212182393639
65	106939	46	1.8966526344337
65	107816	47	2.1538845821906
65	107917	48	2.0361373659898
65	108668	49	2.4102828236181
65	110570	50	1.8298384333463
65	113043	51	2.1867862177632
65	113225	52	1.9083155730116
65	113864	53	2.4375496742424
65	114073	54	2.1192441653449
65	116040	55	1.8101344957858
65	116911	56	0.973
65	117419	57	1.8935190460643
65	117501	58	1.8935190460643
65	118008	59	1.8935190460643
65	119438	60	1.8935190460643
65	120740	61	1.8935190460643
65	120811	62	1.8935190460643
65	121296	63	1.8935190460643
65	121447	64	0.973
65	122838	65	0.973
65	123705	66	2.3056989993318
65	124097	67	5.221135136424
65	124209	68	8.6096961837902
65	124511	69	6.6134658866063
65	125145	70	1.8935190460643
65	125797	71	1.8935190460643
65	125848	72	1.8935190460643
65	126082	73	1.8935190460643
65	126203	74	1.8935190460643
65	127052	75	1.8935190460643
65	127437	76	1.8935190460643
65	127743	77	1.8935190460643
65	127829	78	1.8935190460643
65	128064	79	1.8935190460643
65	128691	80	1.8935190460643
65	129302	81	1.8935190460643
64	6021	3	2.1098289229022
64	6182	4	1.8664304202143
64	13349	5	2.1273513854551
64	16416	6	2.1144779724465
64	18196	7	1.9982335514389
64	18357	8	-3.8115186626199
64	20327	9	-3.7894889466313
64	25564	10	-2.8213081390247
64	30586	11	-0.020886471471749
64	31191	12	1.9510398964421
64	33202	13	2.2337847305206
64	33364	14	2.1123367034108
64	40626	15	1.8907250557211
64	43971	16	2.0151550641516
64	45911	17	-0.72982945841278
64	46303	18	-4.5
64	48305	19	-2.37
64	53748	20	2.1420593004255
64	58756	21	1.2507990425065
64	59079	22	0.97907707327744
64	61220	23	1.7575235413504
64	61543	24	2.0239962685411
64	68426	25	0.049364969705696
64	71470	26	0.093468022991438
64	73428	27	0.005201241536998
64	73908	28	-0.032018072619103
64	75777	29	0.036347112059593
64	80111	30	-0.008845437034033
64	84407	31	-0.099231491750107
64	84791	32	0.058105186896864
64	86157	33	-0.48575715936614
64	86440	34	-4.4937656127301
64	90998	35	-3.7459055638435
64	93213	36	0.99818851757241
64	94393	37	1.4472338437685
64	94720	38	1.9556101491326
64	95762	39	2.0680518348189
64	98357	40	1.7260645097028
64	101231	41	0.51967795576118
64	101342	42	0.012788501689212
64	102376	43	0.04665748490719
64	102587	44	-0.061535340591799
64	105010	45	0.033599960138091
64	106939	46	-0.057063676686958
64	107816	47	0.015778883888853
64	107917	48	-0.017251152424143
64	108668	49	0.086283732703887
64	110570	50	-0.076327752633951
64	113043	51	0.024592533910182
64	113225	52	-0.053198876108508
64	113864	53	0.094402015754021
64	114073	54	0.0039860521233646
64	116040	55	-0.081647291318514
64	116911	56	-2.0488943685349
64	117419	57	0
64	117501	58	0
64	118008	59	0
64	119438	60	0
64	120740	61	0
64	120811	62	0
64	121296	63	0
64	121447	64	-3.736662
64	122838	65	-2.7951807727152
64	123705	66	0.54518077271521
64	124097	67	1.82
64	124209	68	2.6
64	124511	69	1.566662
64	125145	70	0
64	125797	71	0
64	125848	72	0
64	126082	73	0
64	126203	74	0
64	127052	75	0
64	127437	76	0
64	127743	77	0
64	127829	78	0
64	128064	79	0
64	128691	80	0
64	129302	81	0
40	4235	2	3.9572520359362
40	6021	3	6.0670809588385
40	6182	4	7.9335113790528
40	13349	5	10.060862764508
40	16416	6	12.175340736954
40	18196	7	14.173574288393
40	18357	8	10.362055625773
40	20327	9	6.572566679142
40	25564	10	3.7512585401173
40	30586	11	3.7303720686456
40	31191	12	5.6814119650877
40	33202	13	7.9151966956082
40	33364	14	10.027533399019
40	40626	15	11.91825845474
40	43971	16	13.933413518892
40	45911	17	13.203584060479
40	46303	18	8.703584060479
40	48305	19	6.333584060479
40	53748	20	8.4756433609045
40	58756	21	9.726442403411
40	59079	22	10.705519476688
40	61220	23	12.463043018039
40	61543	24	14.48703928658
40	68426	25	14.536404256286
40	71470	26	14.629872279277
40	73428	27	14.635073520814
40	73908	28	14.603055448195
40	75777	29	14.639402560255
40	80111	30	14.630557123221
40	84407	31	14.53132563147
40	84791	32	14.589430818367
40	86157	33	14.103673659001
40	86440	34	9.6099080462711
40	90998	35	5.8640024824276
40	93213	36	6.862191
40	94393	37	8.3094248437685
40	94720	38	10.265034992901
40	95762	39	12.33308682772
40	98357	40	14.059151337423
40	101231	41	14.578829293184
40	101342	42	14.591617794873
40	102376	43	14.63827527978
40	102587	44	14.576739939189
40	105010	45	14.610339899327
40	106939	46	14.55327622264
40	107816	47	14.569055106529
40	107917	48	14.551803954104
40	108668	49	14.638087686808
40	110570	50	14.561759934174
40	113043	51	14.586352468085
40	113225	52	14.533153591976
40	113864	53	14.62755560773
40	114073	54	14.631541659853
40	116040	55	14.549894368535
40	116911	56	12.501
40	117419	57	12.501
40	117501	58	12.501
40	118008	59	12.501
40	119438	60	12.501
40	120740	61	12.501
40	120811	62	12.501
40	121296	63	12.501
40	121447	64	8.764338
40	122838	65	5.9691572272848
40	123705	66	6.514338
40	124097	67	8.334338
40	124209	68	10.934338
40	124511	69	12.501
40	125145	70	12.501
40	125797	71	12.501
40	125848	72	12.501
40	126082	73	12.501
40	126203	74	12.501
40	127052	75	12.501
40	127437	76	12.501
40	127743	77	12.501
40	127829	78	12.501
40	128064	79	12.501
40	128691	80	12.501
40	129302	81	12.501
17	3	1	1120.2
17	4235	2	1123.4
17	6021	3	1123.4
17	6182	4	1123.4
17	13349	5	1123.4
17	16416	6	1123.4
17	18196	7	1123.4
17	18357	8	1123.4
17	20327	9	1123.4
17	25564	10	1124.0746481942
17	30586	11	1126.6
17	31191	12	1126.6
17	33202	13	1126.6
17	33364	14	1126.6
17	40626	15	1126.6
17	43971	16	1126.6
17	45911	17	1126.6
17	46303	18	1126.6
17	48305	19	1126.6
17	53748	20	1125.8614067318
17	58756	21	1119.337511988
17	59079	22	1109.3851592271
17	61220	23	1097.6816035329
17	61543	24	1084.102590792
17	68426	25	1069.5390789702
17	71470	26	1054.9531613628
17	73428	27	1040.3648015098
17	73908	28	1025.7781675275
17	75777	29	1011.1866970459
17	80111	30	996.6256058338
17	84407	31	982.05198175566
17	84791	32	967.48434868556
17	86157	33	952.95775459032
17	86440	34	941.32596373769
17	90998	35	934.10355122354
17	93213	36	929.94840516534
17	94393	37	929.8
17	94720	38	929.8
17	95762	39	929.8
17	98357	40	929.8
17	101231	41	929.8
17	101342	42	929.8
17	102376	43	929.8
17	102587	44	929.8
17	105010	45	929.8
17	106939	46	929.8
17	107816	47	929.8
17	107917	48	929.8
17	108668	49	929.8
17	110570	50	929.8
17	113043	51	929.8
17	113225	52	929.8
17	113864	53	929.8
17	114073	54	929.8
17	116040	55	929.8
17	116911	56	929.8
17	117419	57	929.8
17	117501	58	929.8
17	118008	59	929.8
17	119438	60	929.8
17	120740	61	929.8
17	120811	62	929.8
17	121296	63	929.8
17	121447	64	929.8
17	122838	65	930.22318045506
17	123705	66	935.50398503927
17	124097	67	942.0549301068
17	124209	68	950.78823823026
17	124511	69	961.61684595604
17	125145	70	972.79784817567
17	125797	71	983.97885039531
17	125848	72	995.15985261495
17	126082	73	1006.3408548346
17	126203	74	1017.5218570542
17	127052	75	1028.7028592739
17	127437	76	1039.8838614935
17	127743	77	1051.0648637131
17	127829	78	1062.2458659328
17	128064	79	1073.4268681524
17	128691	80	1084.6078703721
17	129302	81	1095.7888725917
16	3	1	1308.3982634569
16	4235	2	1305.2458442845
16	6021	3	1300.1295018289
16	6182	4	1292.9778619393
16	13349	5	1283.8590992582
16	16416	6	1272.6081736894
16	18196	7	1259.2862606708
16	18357	8	1246.9178666062
16	20327	9	1238.9596576644
16	25564	10	1234.3880277088
16	30586	11	1235.7317602501
16	31191	12	1240.553929513
16	33202	13	1247.4707753385
16	33364	14	1256.5894142119
16	40626	15	1267.6370652447
16	43971	16	1280.6850299385
16	45911	17	1294.8755665688
16	46303	18	1305.6041506293
16	48305	19	1312.2587346898
16	53748	20	1319.7701528771
16	58756	21	1325.9232125731
16	59079	22	1326.6
16	61220	23	1326.6
16	61543	24	1329.8
16	68426	25	1329.8
16	71470	26	1329.8
16	73428	27	1329.8
16	73908	28	1329.8
16	75777	29	1329.8
16	80111	30	1329.8
16	84407	31	1329.8
16	84791	32	1329.8
16	86157	33	1329.8
16	86440	34	1329.8
16	90998	35	1329.9852069681
16	93213	36	1334.3611638426
16	94393	37	1341.8571447748
16	94720	38	1351.2793881497
16	95762	39	1362.6600616437
16	98357	40	1375.8949787908
16	101231	41	1390.4130325305
16	101342	42	1405.0161345922
16	102376	43	1419.6022884585
[...]
25	58756	21	1126.6
25	59079	22	1126.6
25	61220	23	1126.6
25	61543	24	1126.6
25	68426	25	1126.6
25	71470	26	1126.6
25	73428	27	1125.9839430529
25	73908	28	1120.8438191655
25	75777	29	1112.4404635298
25	80111	30	1102.3938064566
25	84407	31	1090.5281247823
25	84791	32	1077.6480110199
25	86157	33	1064.7802704812
25	86440	34	1051.8860590949
25	90998	35	1039.0143693076
25	93213	36	1026.1429404735
25	94393	37	1013.2544372659
25	94720	38	1000.3632265743
25	95762	39	987.48735462689
25	98357	40	974.61696496904
25	101231	41	961.74405289163
25	101342	42	948.89227444792
25	102376	43	938.63158412761
25	102587	44	932.33571892894
25	105010	45	929.8
25	106939	46	929.8
25	107816	47	929.8
25	107917	48	929.8
25	108668	49	929.8
25	110570	50	929.8
25	113043	51	929.8
25	113225	52	929.8
25	113864	53	929.8
25	114073	54	929.8
25	116040	55	929.8
25	116911	56	929.8
25	117419	57	929.8
25	117501	58	929.8
25	118008	59	929.8
25	119438	60	930.0735461157
25	120740	61	933.93146356947
25	120811	62	939.13191353087
25	121296	63	946.54692830295
25	121447	64	955.75305633121
25	122838	65	965.29890036594
25	123705	66	976.82844254888
25	124097	67	988.33565481507
25	124209	68	999.86693753284
25	124511	69	1011.3710195984
25	125145	70	1022.8830846062
25	125797	71	1034.3964584653
25	125848	72	1045.9217264838
25	126082	73	1057.4232672047
25	126203	74	1068.9386835992
25	127052	75	1080.4633291541
25	127437	76	1091.9704434388
25	127743	77	1101.303672822
25	127829	78	1107.2615011482
25	128064	79	1114.4645827169
25	128691	80	1123.7263675277
25	129302	81	1135.7916725974
25	129422	82	1148.6543728808
25	129589	83	1161.5239301505
25	129630	84	1174.3819951446
25	130092	85	1187.2661788464
25	130526	86	1199.7873416468
25	130722	87	1208.6746184351
25	130763	88	1215.0288338054
25	131018	89	1222.008140366
25	131343	90	1225.8228159667
25	131600	91	1226.5943506706
25	131631	92	1226.6
25	131787	93	1229.8
25	131818	94	1229.8
25	132115	95	1229.8
25	132294	96	1229.8
25	132403	97	1229.8
25	132434	98	1229.8
25	132543	99	1229.8
25	132835	100	1229.8
25	133092	101	1229.8
25	133123	102	1229.8
25	133232	103	1229.8
25	133263	104	1229.8
25	133589	105	1230.167177201
25	133791	106	1231.2280566428
25	133922	107	1230.5907060434
25	133976	108	1235.5548628763
25	134037	109	1241.9196690803
25	134113	110	1249.6273520958
25	134289	111	1258.548526897
25	134310	112	1267.6585889688
25	134371	113	1276.7661928252
25	134392	114	1285.8777520146
25	134508	115	1294.9703726344
25	134644	116	1304.0762148961
24	3	1	1229.8
24	4235	2	1229.8
24	6021	3	1229.8
24	6182	4	1229.8
24	13349	5	1229.8
24	16416	6	1229.8
24	18196	7	1229.8
24	18357	8	1229.8
24	20327	9	1229.8
24	25564	10	1229.8
24	30586	11	1229.8
24	31191	12	1229.8
24	33202	13	1229.8
24	33364	14	1229.8
24	40626	15	1229.8
24	43971	16	1229.8
24	45911	17	1229.8
24	46303	18	1232.2249832163
24	48305	19	1238.3425787997
24	53748	20	1246.2171329895
24	58756	21	1256.1413537275
24	59079	22	1268.048672052
24	61220	23	1280.9191938624
24	61543	24	1293.8094681881
24	68426	25	1304.889192239
24	71470	26	1311.7030950675
24	73428	27	1318.9123986297
24	73908	28	1325.2537085007
24	75777	29	1326.6
24	80111	30	1326.6
24	84407	31	1326.6
24	84791	32	1329.8
24	86157	33	1329.8
24	86440	34	1329.8
24	90998	35	1329.8
24	93213	36	1329.8
24	94393	37	1329.8
24	94720	38	1329.8
24	95762	39	1329.8
24	98357	40	1329.8
24	101231	41	1329.8
24	101342	42	1329.8
24	102376	43	1329.8
24	102587	44	1330.5185686426
24	105010	45	1335.6192027432
24	106939	46	1342.745712707
24	107816	47	1351.7898718758
24	107917	48	1362.8574357486
24	108668	49	1375.5338217407
24	110570	50	1388.4016391292
24	113043	51	1401.2820695848
24	113225	52	1414.1626821834
24	113864	53	1427.0429597485
24	114073	54	1439.917423173
24	116040	55	1452.7886463553
24	116911	56	1465.6532437526
24	117419	57	1478.5245730957
24	117501	58	1491.391851455
24	118008	59	1504.2759616328
24	119438	60	1515.9908471517
24	120740	61	1522.7602861881
24	120811	62	1526.5164993444
24	121296	63	1530.4084641515
24	121447	64	1535.0115281656
24	122838	65	1543.359450183
24	123705	66	1549.1242212744
24	124097	67	1554.8778274075
24	124209	68	1560.6434687664
24	124511	69	1566.3955097992
24	125145	70	1572.1515423031
24	125797	71	1577.9082292327
24	125848	72	1583.6708632419
24	126082	73	1589.4216336024
24	126203	74	1595.1793417996
24	127052	75	1600.941664577
24	127437	76	1606.6952217194
24	127743	77	1611.361836411
24	127829	78	1614.3407505741
24	128064	79	1618.0883335697
24	128691	80	1622.1387184123
24	129302	81	1623.4
24	129422	82	1623.4
24	129589	83	1623.4
24	129630	84	1623.4
24	130092	85	1623.4
24	130526	86	1623.4
24	130722	87	1623.4
24	130763	88	1623.5217071181
24	131018	89	1627.4682583572
24	131343	90	1636.7398698275
24	131600	91	1647.2012860109
24	131631	92	1658.5730856071
24	131787	93	1671.3771791838
24	131818	94	1684.2702110007
24	132115	95	1697.1659848221
24	132294	96	1710.035878819
24	132403	97	1722.9204686087
24	132434	98	1735.8148824897
24	132543	99	1748.6887138249
24	132835	100	1761.5658178857
24	133092	101	1774.4735872178
24	133123	102	1787.3756860085
24	133232	103	1799.7669654689
24	133263	104	1809.0810793385
24	133589	105	1816.4371954174
24	133791	106	1817.2924277736
24	133922	107	1812.6192939566
24	133976	108	1807.6551371237
24	134037	109	1801.2903309197
24	134113	110	1793.5826479042
24	134289	111	1784.661473103
24	134310	112	1775.5514110312
24	134371	113	1766.4438071748
24	134392	114	1757.3322479854
24	134508	115	1748.2396273656
24	134644	116	1739.1337851039
49	6021	3	4.2872170979281
49	6182	4	5.3586192538899
49	13349	5	5.9422746970004
49	16416	6	7.9369529708112
49	18196	7	8.6530011684976
49	18357	8	0.973
49	20327	9	0.973
49	25564	10	3.8397641576672
49	30586	11	1.5504977519314
49	31191	12	5.4250048477439
49	33202	13	7.4514822179755
49	33364	14	7.935944398618
49	40626	15	9.019803396603
49	43971	16	4.2999902920707
49	45911	17	2.0025146869713
49	46303	18	2.0864244513106
49	48305	19	2.5128416458527
49	53748	20	2.1168652432767
49	58756	21	2.2181912063518
49	59079	22	1.1061856715998
49	61220	23	0.973
49	61543	24	0.973
49	68426	25	5.2673849634909
49	71470	26	7.1493618443876
49	73428	27	3.112551196619
49	73908	28	6.8466520400063
49	75777	29	1.8935190460643
49	80111	30	1.8935190460643
49	84407	31	0.973
49	84791	32	0.973
49	86157	33	2.3720404771859
49	86440	34	8.0676601410982
49	90998	35	8.9274960017815
49	93213	36	1.8935190460643
49	94393	37	1.8935190460643
49	94720	38	1.8935190460643
49	95762	39	1.8935190460643
49	98357	40	1.8935190460643
49	101231	41	1.8935190460643
49	101342	42	1.8935190460643
49	102376	43	1.8935190460643
49	102587	44	1.8935190460643
49	105010	45	1.8935190460643
49	106939	46	1.8935190460643
49	107816	47	1.8935190460643
49	107917	48	1.8935190460643
49	108668	49	1.8935190460643
49	110570	50	0.973
49	113043	51	0.973
49	113225	52	5.024576704637
49	113864	53	8.188774529399
49	114073	54	8.409169756043
49	116040	55	1.8935190460643
49	116911	56	1.8935190460643
49	117419	57	1.8935190460643
49	117501	58	1.8935190460643
49	118008	59	1.8935190460643
49	119438	60	1.8935190460643
49	120740	61	1.8935190460643
49	120811	62	1.8935190460643
49	121296	63	1.8935190460643
49	121447	64	1.8935190460643
49	122838	65	1.2469149530341
49	123705	66	0.973
49	124097	67	0.973
49	124209	68	1.312802401899
49	124511	69	5.6416842620911
49	125145	70	7.4424961363185
49	125797	71	9.2780584987505
49	125848	72	3.7810163462693
49	126082	73	1.8935190460643
49	126203	74	0.973
49	127052	75	0.973
49	127437	76	0.973
49	127743	77	0.973
49	127829	78	0.973
49	128064	79	0.973
49	128691	80	0.973
49	129302	81	0.973
49	129422	82	0.973
49	129589	83	0.973
49	129630	84	0.973
49	130092	85	0.973
49	130526	86	0.973
49	130722	87	0.973
49	130763	88	0.973
49	131018	89	0.973
49	131343	90	0.973
49	131600	91	0.973
49	131631	92	0.973
49	131787	93	0.973
49	131818	94	0.973
49	132115	95	0.973
49	132294	96	0.973
49	132403	97	0.973
49	132434	98	0.973
49	132543	99	0.973
49	132835	100	0.973
49	133092	101	0.973
49	133123	102	0.973
49	133232	103	0.973
49	133263	104	0.973
49	133589	105	0.973
49	133791	106	0.973
49	133922	107	0.973
49	133976	108	0.973
49	134037	109	0.973
49	134113	110	0.973
49	134289	111	0.973
49	134310	112	0.973
49	134371	113	0.973
49	134392	114	0.973
49	134508	115	0.973
49	134644	116	0.973
49	134705	117	0.973
49	134716	118	0.973
49	134743	119	0.973
49	134754	120	0.973
49	134848	121	0.973
49	134859	122	0.973
49	134886	123	0.973
49	134898	124	2.4977988597808
49	134925	125	3.5229828836692
49	135021	126	4.1890168130942
49	135048	127	5.3029421675241
49	135059	128	6.3967713697708
49	135086	129	7.8336967146217
49	135097	130	9.1467078654289
49	135209	131	0.973
49	135220	132	1.8935190460643
49	135248	133	1.8935190460643
49	135259	134	1.8935190460643
48	6021	3	1.966985841773
48	6182	4	1.9738529847632
48	13349	5	1.8042148443125
48	16416	6	2.1176814072602
48	18196	7	1.974909677878
48	18357	8	-3.6193132953048
48	20327	9	-4.4896533254211
48	25564	10	1.3606480907142
48	30586	11	0.03380628396757
48	31191	12	1.7658928978699
48	33202	13	2.1250802085036
48	33364	14	1.913000718921
48	40626	15	1.9144709066534
48	43971	16	0.5629299257307
48	45911	17	-0.051425534270237
48	46303	18	-0.028051617471501
48	48305	19	0.083788245143369
48	53748	20	-0.021675251100678
48	58756	21	0.0053461495996441
48	59079	22	-0.28953936900439
48	61220	23	-4.4164392582822
48	61543	24	-4.5
48	68426	25	1.89
48	71470	26	2.1831521502349
48	73428	27	0.52
48	73908	28	1.644062
48	75777	29	0
48	80111	30	0
48	84407	31	-0.90474333031523
48	84791	32	-4.5
48	86157	33	0.47
48	86440	34	2.6
48	90998	35	2.3347433303152
48	93213	36	0
48	94393	37	0
48	94720	38	0
48	95762	39	0
48	98357	40	0
48	101231	41	0
48	101342	42	0
48	102376	43	0
48	102587	44	0
48	105010	45	0
48	106939	46	0
48	107816	47	0
48	107917	48	0
48	108668	49	0
48	110570	50	-2.882697
48	113043	51	-3.7559290255041
48	113225	52	1.875927436419
48	113864	53	2.6
48	114073	54	2.1626985890851
48	116040	55	0
48	116911	56	0
48	117419	57	0
48	117501	58	0
48	118008	59	0
48	119438	60	0
48	120740	61	0
48	120811	62	0
48	121296	63	0
48	121447	64	0
48	122838	65	-0.21182698411778
48	123705	66	-4.5
48	124097	67	-3.7146780158822
48	124209	68	0
48	124511	69	2.6
48	125145	70	2.6
48	125797	71	2.6
48	125848	72	0.62650500000001
48	126082	73	0
48	126203	74	-4.5
48	127052	75	-4.5
48	127437	76	-3.501
48	127743	77	0
48	127829	78	0
48	128064	79	0
48	128691	80	0
48	129302	81	0
48	129422	82	0
48	129589	83	0
48	129630	84	0
48	130092	85	0
48	130526	86	0
48	130722	87	0
48	130763	88	0
48	131018	89	0
48	131343	90	0
48	131600	91	0
48	131631	92	0
48	131787	93	0
48	131818	94	0
48	132115	95	0
48	132294	96	0
48	132403	97	0
48	132434	98	0
48	132543	99	0
48	132835	100	0
48	133092	101	0
48	133123	102	0
48	133232	103	0
48	133263	104	0
48	133589	105	0
48	133791	106	0
48	133922	107	0
48	133976	108	0
48	134037	109	0
48	134113	110	0
48	134289	111	0
48	134310	112	0
48	134371	113	0
48	134392	114	0
48	134508	115	0
48	134644	116	0
48	134705	117	0
48	134716	118	0
48	134743	119	0
48	134754	120	0
48	134848	121	0
48	134859	122	0
48	134886	123	0
48	134898	124	2.3007189473343
48	134925	125	2.0787107842938
48	135021	126	1.8394120811205
48	135048	127	1.9137796832784
48	135059	128	1.9390268170298
48	135086	129	2.0459219574835
48	135097	130	2.0726680601877
48	135209	131	-1.6892383307281
48	135220	132	0
48	135248	133	0
48	135259	134	0
32	4235	2	4.0772753175295
32	6021	3	6.0442611593025
32	6182	4	8.0181141440657
32	13349	5	9.8223289883782
32	16416	6	11.940010395638
32	18196	7	13.914920073516
32	18357	8	10.295606778212
32	20327	9	5.8059534527906
32	25564	10	7.1666015435048
32	30586	11	7.2004078274724
32	31191	12	8.9663007253423
32	33202	13	11.091380933846
32	33364	14	13.004381652767
32	40626	15	14.91885255942
32	43971	16	15.481782485151
32	45911	17	15.430356950881
32	46303	18	15.402305333409
32	48305	19	15.486093578553
32	53748	20	15.464418327452
32	58756	21	15.469764477052
32	59079	22	15.180225108047
32	61220	23	10.763785849765
32	61543	24	6.2637858497651
32	68426	25	8.1537858497651
32	71470	26	10.336938
32	73428	27	10.856938
32	73908	28	12.501
32	75777	29	12.501
32	80111	30	12.501
32	84407	31	11.596256669685
32	84791	32	7.0962566696848
32	86157	33	7.5662566696848
32	86440	34	10.166256669685
32	90998	35	12.501
32	93213	36	12.501
32	94393	37	12.501
32	94720	38	12.501
32	95762	39	12.501
32	98357	40	12.501
32	101231	41	12.501
32	101342	42	12.501
32	102376	43	12.501
32	102587	44	12.501
32	105010	45	12.501
32	106939	46	12.501
32	107816	47	12.501
32	107917	48	12.501
32	108668	49	12.501
32	110570	50	9.618303
32	113043	51	5.8623739744959
32	113225	52	7.7383014109149
32	113864	53	10.338301410915
32	114073	54	12.501
32	116040	55	12.501
32	116911	56	12.501
32	117419	57	12.501
32	117501	58	12.501
32	118008	59	12.501
32	119438	60	12.501
32	120740	61	12.501
32	120811	62	12.501
32	121296	63	12.501
32	121447	64	12.501
32	122838	65	12.289173015882
32	123705	66	7.7891730158822
32	124097	67	4.074495
32	124209	68	4.074495
32	124511	69	6.674495
32	125145	70	9.274495
32	125797	71	11.874495
32	125848	72	12.501
32	126082	73	12.501
32	126203	74	8.001
32	127052	75	3.501
32	127437	76	0
32	127743	77	0
32	127829	78	0
32	128064	79	0
32	128691	80	0
32	129302	81	0
32	129422	82	0
32	129589	83	0
32	129630	84	0
32	130092	85	0
32	130526	86	0
32	130722	87	0
32	130763	88	0
32	131018	89	0
32	131343	90	0
32	131600	91	0
32	131631	92	0
32	131787	93	0
32	131818	94	0
32	132115	95	0
32	132294	96	0
32	132403	97	0
32	132434	98	0
32	132543	99	0
32	132835	100	0
32	133092	101	0
32	133123	102	0
32	133232	103	0
32	133263	104	0
32	133589	105	0
32	133791	106	0
32	133922	107	0
32	133976	108	0
32	134037	109	0
32	134113	110	0
32	134289	111	0
32	134310	112	0
32	134371	113	0
32	134392	114	0
32	134508	115	0
32	134644	116	0
32	134705	117	0
32	134716	118	0
32	134743	119	0
32	134754	120	0
32	134848	121	0
32	134859	122	0
32	134886	123	0
32	134898	124	2.3007189473343
32	134925	125	4.3794297316281
32	135021	126	6.2188418127486
32	135048	127	8.132621496027
32	135059	128	10.071648313057
32	135086	129	12.11757027054
32	135097	130	14.190238330728
32	135209	131	12.501
32	135220	132	12.501
32	135248	133	12.501
32	135259	134	12.501
1	3	1	1020.2
1	4235	2	1020.2
1	6021	3	1020.2
1	6182	4	1020.2
1	13349	5	1020.2
1	16416	6	1020.2
1	18196	7	1020.2
1	18357	8	1020.2
1	20327	9	1020.2
1	25564	10	1019.8574114058
1	30586	11	1013.9961346184
1	31191	12	1005.840109881
1	33202	13	995.69673452025
1	33364	14	983.55622120424
1	40626	15	969.50323642773
1	43971	16	954.07753023339
1	45911	17	938.62287339371
1	46303	18	923.17719044442
1	48305	19	907.73630325915
1	53748	20	892.31258937859
1	58756	21	876.8709759824
1	59079	22	861.47843434839
1	61220	23	848.73770745446
1	61543	24	840.44892160469
1	68426	25	833.48428223019
1	71470	26	825.48082236213
1	73428	27	823.4
1	73908	28	823.4
1	75777	29	823.4
1	80111	30	823.4
1	84407	31	823.4
1	84791	32	823.4
1	86157	33	823.42604685615
1	86440	34	824.07002171273
1	90998	35	828.10701612595
1	93213	36	839.26033367059
1	94393	37	851.76133367059
1	94720	38	864.26233367059
1	95762	39	876.76333367059
1	98357	40	889.26433367059
1	101231	41	901.76533367059
1	101342	42	914.26633367059
1	102376	43	926.76733367059
1	102587	44	939.26833367059
1	105010	45	951.76933367059
1	106939	46	964.27033367059
1	107816	47	976.77133367059
1	107917	48	989.27233367059
1	108668	49	1001.7733336706
1	110570	50	1013.2014457706
1	113043	51	1018.9855869143
1	113225	52	1020.1416106282
1	113864	53	1023.4
1	114073	54	1023.4
1	116040	55	1023.4
1	116911	56	1023.4
1	117419	57	1023.4
1	117501	58	1023.4
1	118008	59	1023.4
1	119438	60	1023.4
1	120740	61	1023.4
1	120811	62	1023.4
1	121296	63	1023.4
1	121447	64	1023.4
1	122838	65	1023.4
1	123705	66	1023.4
1	124097	67	1023.8513770618
1	124209	68	1026.6
1	124511	69	1026.6
1	125145	70	1026.6
1	125797	71	1026.6
1	125848	72	1026.6
1	126082	73	1026.6
1	126203	74	1026.6
1	127052	75	1026.6
1	127437	76	1026.6
1	127743	77	1026.6
1	127829	78	1026.6
1	128064	79	1026.6
1	128691	80	1029.8
1	129302	81	1029.8
1	129422	82	1029.8
1	129589	83	1029.8
1	129630	84	1029.8
1	130092	85	1029.8
1	130526	86	1029.8
1	130722	87	1029.8
1	130763	88	1029.8
1	131018	89	1029.8
1	131343	90	1029.8
1	131600	91	1029.8
1	131631	92	1029.8
1	131787	93	1029.8
1	131818	94	1029.8
1	132115	95	1029.8
1	132294	96	1029.8
1	132403	97	1029.8
1	132434	98	1029.8
1	132543	99	1029.8
1	132835	100	1029.8
1	133092	101	1029.8
1	133123	102	1029.8
1	133232	103	1029.8
1	133263	104	1029.8
1	133589	105	1029.8
1	133791	106	1029.8
1	133922	107	1029.8
1	133976	108	1029.8
1	134037	109	1029.8
1	134113	110	1029.8
1	134289	111	1029.8
1	134310	112	1029.8
1	134371	113	1029.8
1	134392	114	1029.8
1	134508	115	1029.8
1	134644	116	1029.8
1	134705	117	1029.8
1	134716	118	1029.8
1	134743	119	1029.8
1	134754	120	1029.8
1	134848	121	1029.8
1	134859	122	1029.8
1	134886	123	1029.8
1	134898	124	1029.8
1	134925	125	1029.8
1	135021	126	1029.8
1	135048	127	1029.8
1	135059	128	1029.8
1	135086	129	1029.8
1	135097	130	1029.8
1	135209	131	1029.8
1	135220	132	1029.8
1	135248	133	1029.8
1	135259	134	1029.8
0	3	1	608.43874147068
0	4235	2	605.29051320509
0	6021	3	600.11767306844
0	6182	4	593.04097555207
0	13349	5	584.0280122103
0	16416	6	573.06981568671
0	18196	7	560.00745960581
0	18357	8	547.70856272483
0	20327	9	539.88174794187
0	25564	10	533.0018798406
0	30586	11	529.8
0	31191	12	526.6
0	33202	13	526.6
0	33364	14	526.6
0	40626	15	526.6
0	43971	16	526.6
0	45911	17	526.6
0	46303	18	526.6
0	48305	19	526.6
0	53748	20	526.6
0	58756	21	526.6
0	59079	22	526.6
0	61220	23	526.6
0	61543	24	526.6
0	68426	25	526.32632603288
0	71470	26	522.06803727021
0	73428	27	512.07378147512
0	73908	28	500.01321867512
0	75777	29	487.51221867512
0	80111	30	475.01121867512
0	84407	31	462.64664167421
0	84791	32	453.52538500453
0	86157	33	446.91708047095
0	86440	34	437.94436413592
0	90998	35	427.33068473487
0	93213	36	423.4
0	94393	37	423.4
0	94720	38	423.4
0	95762	39	420.2
0	98357	40	420.2
0	101231	41	420.2
0	101342	42	420.2
0	102376	43	420.2
0	102587	44	420.2
0	105010	45	420.2
0	106939	46	420.2
0	107816	47	420.2
0	107917	48	420.2
0	108668	49	420.2
0	110570	50	420.2
0	113043	51	416.90435437996
0	113225	52	410.18852495743
0	113864	53	401.02216985891
0	114073	54	389.31532873018
0	116040	55	376.81432873018
0	116911	56	364.31332873018
0	117419	57	351.81232873018
0	117501	58	339.31132873018
0	118008	59	326.81032873018
0	119438	60	314.30932873018
0	120740	61	301.80832873018
0	120811	62	289.30732873018
0	121296	63	276.80632873018
0	121447	64	264.30532873018
0	122838	65	251.82551142859
0	123705	66	242.01133841271
0	124097	67	236.72293440723
0	124209	68	237.609394
0	124511	69	243.113889
0	125145	70	251.218384
0	125797	71	261.922879
0	125848	72	274.376578
0	126082	73	286.877578
0	126203	74	296.903578
0	127052	75	302.429578
0	127437	76	303.620278
0	127743	77	303.620278
0	127829	78	303.620278
0	128064	79	303.620278
0	128691	80	303.620278
0	129302	81	303.620278
0	129422	82	303.620278
0	129589	83	303.620278
0	129630	84	303.620278
0	130092	85	303.620278
0	130526	86	303.620278
0	130722	87	303.620278
0	130763	88	303.620278
0	131018	89	303.620278
0	131343	90	303.620278
0	131600	91	303.620278
0	131631	92	303.620278
0	131787	93	303.620278
0	131818	94	303.620278
0	132115	95	303.620278
0	132294	96	303.620278
0	132403	97	303.620278
0	132434	98	303.620278
0	132543	99	303.620278
0	132835	100	303.620278
0	133092	101	303.620278
0	133123	102	303.620278
0	133232	103	303.620278
0	133263	104	303.620278
0	133589	105	303.620278
0	133791	106	303.620278
0	133922	107	303.620278
0	133976	108	303.620278
0	134037	109	303.620278
0	134113	110	303.620278
0	134289	111	303.620278
0	134310	112	303.620278
0	134371	113	303.620278
0	134392	114	303.620278
0	134508	115	303.620278
0	134644	116	303.620278
0	134705	117	303.620278
0	134716	118	303.620278
0	134743	119	303.620278
0	134754	120	303.620278
0	134848	121	303.620278
0	134859	122	303.620278
0	134886	123	303.620278
0	134898	124	304.93347650049
0	134925	125	308.41518974802
0	135021	126	313.81168274468
0	135048	127	321.10448708186
0	135059	128	330.21419114332
0	135086	129	341.35240270627
0	135097	130	354.59956338984
0	135209	131	367.33733488906
0	135220	132	379.83833488906
0	135248	133	392.33933488906
0	135259	134	404.84033488906

