version 2
run General-0-20250528-17:41:06-1220
attr configname General
attr datetime 20250528-17:41:06
attr experiment General
attr inifile omnetpp.ini
attr iterationvars ""
attr iterationvarsf ""
attr measurement ""
attr network RSUExampleScenario
attr processid 1220
attr repetition 0
attr replication #0
attr resultdir results
attr runnumber 0
attr seedset 0
param *.playgroundSizeX 5000m
param *.playgroundSizeY 5000m
param *.playgroundSizeZ 50m
param *.annotations.draw true
param *.obstacles.obstacles "xmldoc(\"config.xml\", \"//AnalogueModel[@type='SimpleObstacleShadowing']/obstacles\")"
param *.manager.updateInterval 1s
param *.manager.host "\"localhost\""
param *.manager.port 9999
param *.manager.autoShutdown true
param *.manager.launchConfig "xmldoc(\"erlangen.launchd.xml\")"
param *.manager.trafficLightModuleType "\"org.car2x.veins.nodes.TrafficLight\""
param *.tls[*].mobility.x 0
param *.tls[*].mobility.y 0
param *.tls[*].mobility.z 3
param *.tls[*].applType "\"org.car2x.veins.modules.application.traci.TraCIDemoTrafficLightApp\""
param *.tls[*].logicType "\"org.car2x.veins.modules.world.traci.trafficLight.logics.TraCITrafficLightSimpleLogic\""
param *.rsu[0].mobility.x 1000
param *.rsu[0].mobility.y 1000
param *.rsu[0].mobility.z 3
param *.rsu[*].applType "\"RSUControlApp\""
param *.rsu[*].appl.headerLength "80 bit"
param *.rsu[*].appl.sendBeacons false
param *.rsu[*].appl.dataOnSch false
param *.rsu[*].appl.beaconInterval 1s
param *.rsu[*].appl.beaconUserPriority 7
param *.rsu[*].appl.dataUserPriority 5
param *.rsu[*].appl.netFile "\"./erlangen.net.xml\""
param *.rsu[*].appl.routeFile "\"./erlangen.rou.xml\""
param *.rsu[*].nic.phy80211p.antennaOffsetZ "0 m"
param *.connectionManager.sendDirect true
param *.connectionManager.maxInterfDist 4000m
param *.connectionManager.drawMaxIntfDist false
param *.**.nic.mac1609_4.useServiceChannel false
param *.**.nic.mac1609_4.txPower 50mW
param *.**.nic.mac1609_4.bitrate 6Mbps
param *.**.nic.phy80211p.minPowerLevel -110dBm
param *.**.nic.phy80211p.useNoiseFloor true
param *.**.nic.phy80211p.noiseFloor -98dBm
param *.**.nic.phy80211p.decider "xmldoc(\"config.xml\")"
param *.**.nic.phy80211p.analogueModels "xmldoc(\"config.xml\")"
param *.**.nic.phy80211p.usePropagationDelay true
param *.**.nic.phy80211p.antenna "xmldoc(\"antenna.xml\", \"/root/Antenna[@id='monopole']\")"
param *.node[*].nic.phy80211p.antennaOffsetY "0 m"
param *.node[*].nic.phy80211p.antennaOffsetZ "1.895 m"
param *.node[*].applType "\"VehicleControlApp\""
param *.node[*].appl.headerLength "80 bit"
param *.node[*].appl.sendBeacons true
param *.node[*].appl.dataOnSch false
param *.node[*].appl.beaconInterval 1s
param *.node[*].veinsmobility.x 0
param *.node[*].veinsmobility.y 0
param *.node[*].veinsmobility.z 0
param *.node[*].veinsmobility.setHostSpeed false
param *.node[*0].veinsmobility.accidentCount 1
param *.node[*0].veinsmobility.accidentStart 73s
param *.node[*0].veinsmobility.accidentDuration 50s

vector 0 RSUExampleScenario.node[0].veinsmobility posx ETV
vector 1 RSUExampleScenario.node[0].veinsmobility posy ETV
vector 2 RSUExampleScenario.node[1].veinsmobility posx ETV
vector 3 RSUExampleScenario.node[1].veinsmobility posy ETV
vector 4 RSUExampleScenario.node[2].veinsmobility posx ETV
vector 5 RSUExampleScenario.node[2].veinsmobility posy ETV
vector 6 RSUExampleScenario.node[3].veinsmobility posx ETV
vector 7 RSUExampleScenario.node[3].veinsmobility posy ETV
vector 8 RSUExampleScenario.node[4].veinsmobility posx ETV
vector 9 RSUExampleScenario.node[4].veinsmobility posy ETV
vector 10 RSUExampleScenario.node[5].veinsmobility posx ETV
vector 11 RSUExampleScenario.node[5].veinsmobility posy ETV
vector 12 RSUExampleScenario.node[6].veinsmobility posx ETV
vector 13 RSUExampleScenario.node[6].veinsmobility posy ETV
vector 14 RSUExampleScenario.node[7].veinsmobility posx ETV
vector 15 RSUExampleScenario.node[7].veinsmobility posy ETV
vector 16 RSUExampleScenario.node[8].veinsmobility posx ETV
vector 17 RSUExampleScenario.node[8].veinsmobility posy ETV
vector 18 RSUExampleScenario.node[9].veinsmobility posx ETV
vector 19 RSUExampleScenario.node[9].veinsmobility posy ETV
vector 20 RSUExampleScenario.node[10].veinsmobility posx ETV
vector 21 RSUExampleScenario.node[10].veinsmobility posy ETV
vector 22 RSUExampleScenario.node[11].veinsmobility posx ETV
vector 23 RSUExampleScenario.node[11].veinsmobility posy ETV
vector 24 RSUExampleScenario.node[12].veinsmobility posx ETV
vector 25 RSUExampleScenario.node[12].veinsmobility posy ETV
vector 26 RSUExampleScenario.node[13].veinsmobility posx ETV
vector 27 RSUExampleScenario.node[13].veinsmobility posy ETV
vector 28 RSUExampleScenario.node[14].veinsmobility posx ETV
vector 29 RSUExampleScenario.node[14].veinsmobility posy ETV
vector 30 RSUExampleScenario.node[15].veinsmobility posx ETV
vector 31 RSUExampleScenario.node[15].veinsmobility posy ETV
vector 32 RSUExampleScenario.node[16].veinsmobility posx ETV
vector 33 RSUExampleScenario.node[16].veinsmobility posy ETV
vector 34 RSUExampleScenario.node[17].veinsmobility posx ETV
vector 35 RSUExampleScenario.node[17].veinsmobility posy ETV
vector 36 RSUExampleScenario.node[18].veinsmobility posx ETV
vector 37 RSUExampleScenario.node[18].veinsmobility posy ETV
vector 38 RSUExampleScenario.node[19].veinsmobility posx ETV
vector 39 RSUExampleScenario.node[19].veinsmobility posy ETV
vector 40 RSUExampleScenario.node[20].veinsmobility posx ETV
vector 41 RSUExampleScenario.node[20].veinsmobility posy ETV
vector 42 RSUExampleScenario.node[21].veinsmobility posx ETV
vector 43 RSUExampleScenario.node[21].veinsmobility posy ETV
vector 44 RSUExampleScenario.node[22].veinsmobility posx ETV
vector 45 RSUExampleScenario.node[22].veinsmobility posy ETV
vector 46 RSUExampleScenario.node[23].veinsmobility posx ETV
vector 47 RSUExampleScenario.node[23].veinsmobility posy ETV
vector 48 RSUExampleScenario.node[24].veinsmobility posx ETV
vector 49 RSUExampleScenario.node[24].veinsmobility posy ETV
vector 50 RSUExampleScenario.node[25].veinsmobility posx ETV
vector 51 RSUExampleScenario.node[25].veinsmobility posy ETV
vector 52 RSUExampleScenario.node[26].veinsmobility posx ETV
vector 53 RSUExampleScenario.node[26].veinsmobility posy ETV
vector 54 RSUExampleScenario.node[27].veinsmobility posx ETV
vector 55 RSUExampleScenario.node[27].veinsmobility posy ETV
vector 56 RSUExampleScenario.node[28].veinsmobility posx ETV
vector 57 RSUExampleScenario.node[28].veinsmobility posy ETV
vector 58 RSUExampleScenario.node[29].veinsmobility posx ETV
vector 59 RSUExampleScenario.node[29].veinsmobility posy ETV
vector 60 RSUExampleScenario.node[30].veinsmobility posx ETV
vector 61 RSUExampleScenario.node[30].veinsmobility posy ETV
vector 62 RSUExampleScenario.node[31].veinsmobility posx ETV
vector 63 RSUExampleScenario.node[31].veinsmobility posy ETV
vector 64 RSUExampleScenario.node[32].veinsmobility posx ETV
vector 65 RSUExampleScenario.node[32].veinsmobility posy ETV
vector 66 RSUExampleScenario.node[0].veinsmobility speed ETV
vector 67 RSUExampleScenario.node[1].veinsmobility speed ETV
vector 68 RSUExampleScenario.node[2].veinsmobility speed ETV
vector 69 RSUExampleScenario.node[3].veinsmobility speed ETV
vector 70 RSUExampleScenario.node[4].veinsmobility speed ETV
vector 71 RSUExampleScenario.node[5].veinsmobility speed ETV
vector 72 RSUExampleScenario.node[6].veinsmobility speed ETV
vector 73 RSUExampleScenario.node[7].veinsmobility speed ETV
vector 74 RSUExampleScenario.node[8].veinsmobility speed ETV
vector 75 RSUExampleScenario.node[9].veinsmobility speed ETV
vector 76 RSUExampleScenario.node[10].veinsmobility speed ETV
vector 77 RSUExampleScenario.node[11].veinsmobility speed ETV
vector 78 RSUExampleScenario.node[12].veinsmobility speed ETV
vector 79 RSUExampleScenario.node[13].veinsmobility speed ETV
vector 80 RSUExampleScenario.node[14].veinsmobility speed ETV
vector 81 RSUExampleScenario.node[15].veinsmobility speed ETV
vector 82 RSUExampleScenario.node[16].veinsmobility speed ETV
vector 83 RSUExampleScenario.node[17].veinsmobility speed ETV
vector 84 RSUExampleScenario.node[18].veinsmobility speed ETV
vector 85 RSUExampleScenario.node[19].veinsmobility speed ETV
vector 86 RSUExampleScenario.node[20].veinsmobility speed ETV
vector 87 RSUExampleScenario.node[21].veinsmobility speed ETV
vector 88 RSUExampleScenario.node[22].veinsmobility speed ETV
vector 89 RSUExampleScenario.node[23].veinsmobility speed ETV
vector 90 RSUExampleScenario.node[24].veinsmobility speed ETV
vector 91 RSUExampleScenario.node[25].veinsmobility speed ETV
vector 92 RSUExampleScenario.node[26].veinsmobility speed ETV
vector 93 RSUExampleScenario.node[27].veinsmobility speed ETV
vector 94 RSUExampleScenario.node[28].veinsmobility speed ETV
vector 95 RSUExampleScenario.node[29].veinsmobility speed ETV
vector 96 RSUExampleScenario.node[30].veinsmobility speed ETV
vector 97 RSUExampleScenario.node[31].veinsmobility speed ETV
vector 98 RSUExampleScenario.node[32].veinsmobility speed ETV
vector 99 RSUExampleScenario.node[0].veinsmobility acceleration ETV
vector 100 RSUExampleScenario.node[0].veinsmobility co2emission ETV
vector 101 RSUExampleScenario.node[1].veinsmobility acceleration ETV
vector 102 RSUExampleScenario.node[1].veinsmobility co2emission ETV
vector 103 RSUExampleScenario.node[2].veinsmobility acceleration ETV
vector 104 RSUExampleScenario.node[2].veinsmobility co2emission ETV
vector 105 RSUExampleScenario.node[3].veinsmobility acceleration ETV
vector 106 RSUExampleScenario.node[3].veinsmobility co2emission ETV
vector 107 RSUExampleScenario.node[4].veinsmobility acceleration ETV
vector 108 RSUExampleScenario.node[4].veinsmobility co2emission ETV
vector 109 RSUExampleScenario.node[5].veinsmobility acceleration ETV
vector 110 RSUExampleScenario.node[5].veinsmobility co2emission ETV
vector 111 RSUExampleScenario.node[6].veinsmobility acceleration ETV
vector 112 RSUExampleScenario.node[6].veinsmobility co2emission ETV
vector 113 RSUExampleScenario.node[7].veinsmobility acceleration ETV
vector 114 RSUExampleScenario.node[7].veinsmobility co2emission ETV
vector 115 RSUExampleScenario.node[8].veinsmobility acceleration ETV
vector 116 RSUExampleScenario.node[8].veinsmobility co2emission ETV
vector 117 RSUExampleScenario.node[9].veinsmobility acceleration ETV
vector 118 RSUExampleScenario.node[9].veinsmobility co2emission ETV
vector 119 RSUExampleScenario.node[10].veinsmobility acceleration ETV
vector 120 RSUExampleScenario.node[10].veinsmobility co2emission ETV
vector 121 RSUExampleScenario.node[11].veinsmobility acceleration ETV
vector 122 RSUExampleScenario.node[11].veinsmobility co2emission ETV
vector 123 RSUExampleScenario.node[12].veinsmobility acceleration ETV
vector 124 RSUExampleScenario.node[12].veinsmobility co2emission ETV
vector 125 RSUExampleScenario.node[13].veinsmobility acceleration ETV
vector 126 RSUExampleScenario.node[13].veinsmobility co2emission ETV
vector 127 RSUExampleScenario.node[14].veinsmobility acceleration ETV
vector 128 RSUExampleScenario.node[14].veinsmobility co2emission ETV
vector 129 RSUExampleScenario.node[15].veinsmobility acceleration ETV
vector 130 RSUExampleScenario.node[15].veinsmobility co2emission ETV
vector 131 RSUExampleScenario.node[16].veinsmobility acceleration ETV
vector 132 RSUExampleScenario.node[16].veinsmobility co2emission ETV
vector 133 RSUExampleScenario.node[17].veinsmobility acceleration ETV
vector 134 RSUExampleScenario.node[17].veinsmobility co2emission ETV
vector 135 RSUExampleScenario.node[18].veinsmobility acceleration ETV
vector 136 RSUExampleScenario.node[18].veinsmobility co2emission ETV
vector 137 RSUExampleScenario.node[19].veinsmobility acceleration ETV
vector 138 RSUExampleScenario.node[19].veinsmobility co2emission ETV
vector 139 RSUExampleScenario.node[20].veinsmobility acceleration ETV
vector 140 RSUExampleScenario.node[20].veinsmobility co2emission ETV
vector 141 RSUExampleScenario.node[21].veinsmobility acceleration ETV
vector 142 RSUExampleScenario.node[21].veinsmobility co2emission ETV
vector 143 RSUExampleScenario.node[22].veinsmobility acceleration ETV
vector 144 RSUExampleScenario.node[22].veinsmobility co2emission ETV
vector 145 RSUExampleScenario.node[23].veinsmobility acceleration ETV
vector 146 RSUExampleScenario.node[23].veinsmobility co2emission ETV
vector 147 RSUExampleScenario.node[24].veinsmobility acceleration ETV
vector 148 RSUExampleScenario.node[24].veinsmobility co2emission ETV
vector 149 RSUExampleScenario.node[25].veinsmobility acceleration ETV
vector 150 RSUExampleScenario.node[25].veinsmobility co2emission ETV
vector 151 RSUExampleScenario.node[26].veinsmobility acceleration ETV
vector 152 RSUExampleScenario.node[26].veinsmobility co2emission ETV
vector 153 RSUExampleScenario.node[27].veinsmobility acceleration ETV
vector 154 RSUExampleScenario.node[27].veinsmobility co2emission ETV
vector 155 RSUExampleScenario.node[28].veinsmobility acceleration ETV
vector 156 RSUExampleScenario.node[28].veinsmobility co2emission ETV
vector 157 RSUExampleScenario.node[29].veinsmobility acceleration ETV
vector 158 RSUExampleScenario.node[29].veinsmobility co2emission ETV
vector 159 RSUExampleScenario.node[30].veinsmobility acceleration ETV
vector 160 RSUExampleScenario.node[30].veinsmobility co2emission ETV
vector 161 RSUExampleScenario.node[31].veinsmobility acceleration ETV
vector 162 RSUExampleScenario.node[31].veinsmobility co2emission ETV
vector 163 RSUExampleScenario.node[32].veinsmobility acceleration ETV
vector 164 RSUExampleScenario.node[32].veinsmobility co2emission ETV
130	23353	3	4.2224558921743
130	23684	4	5.7514217043097
130	48253	5	6.2566364396394
130	65268	6	7.0425408200756
130	72189	7	8.4239026990681
130	72520	8	4.4314061324881
130	79436	9	2.0691679060363
130	98417	10	2.0884345007989
130	121571	11	2.0469384696325
130	123559	12	2.2260642352925
130	131211	13	1.8199168235643
130	132136	14	2.0793188296728
130	158238	15	2.1946815186141
130	175135	16	1.9059554201494
130	182534	17	2.2150122619366
129	23353	3	1.974370775437
129	23684	4	2.1627123608557
129	48253	5	1.9038315732777
129	65268	6	1.8322849037033
129	72189	7	1.936524557583
129	72520	8	0.67629594001023
129	79436	9	-0.0035936749330716
129	98417	10	0.001895821627695
129	121571	11	-0.0097601146763182
129	123559	12	0.040495141178834
129	131211	13	-0.074308763134757
129	132136	14	0.00058072044514113
129	158238	15	0.03281691895565
129	175135	16	-0.049040779070928
129	182534	17	0.039006881280802
81	16435	2	3.9284573337197
81	23353	3	5.9028281091567
81	23684	4	8.0655404700124
81	48253	5	9.9693720432901
81	65268	6	11.801656946993
81	72189	7	13.738181504576
81	72520	8	14.414477444587
81	79436	9	14.410883769654
81	98417	10	14.412779591281
81	121571	11	14.403019476605
81	123559	12	14.443514617784
81	131211	13	14.369205854649
81	132136	14	14.369786575094
81	158238	15	14.40260349405
81	175135	16	14.353562714979
81	182534	17	14.39256959626
31	3	1	641.5677504264
31	16435	2	644.60594983455
31	23353	3	649.6755988528
31	23684	4	656.76021209194
31	48253	5	665.823776288
31	65268	6	676.79524123576
31	72189	7	689.66627341833
31	72520	8	703.97700380744
31	79436	9	718.38977858704
31	98417	10	730.28029320395
31	121571	11	740.61266060607
31	123559	12	750.79709889136
31	131211	13	760.96777735309
31	132136	14	771.1314239249
31	158238	15	781.3191993748
31	175135	16	791.48330313062
31	182534	17	801.65644658893
30	3	1	1120.2
30	16435	2	1120.2
30	23353	3	1120.2
30	23684	4	1120.2
30	48253	5	1120.2
30	65268	6	1120.2
30	72189	7	1120.2
30	72520	8	1120.2
30	79436	9	1120.2
30	98417	10	1112.6362546679
30	121571	11	1102.5973393939
30	123559	12	1092.4129011086
30	131211	13	1082.2422226469
30	132136	14	1072.0785760751
30	158238	15	1061.8908006252
30	175135	16	1051.7266968694
30	182534	17	1041.5535534111
102	23353	3	3.8788262923517
102	23684	4	5.3330931506627
102	48253	5	6.799073791023
102	65268	6	7.2449748267571
102	72189	7	0.973
102	72520	8	0.973
102	79436	9	0.973
102	98417	10	1.28321851818
102	121571	11	3.4058647640186
102	123559	12	4.788725809193
102	131211	13	6.1159466370112
102	132136	14	6.5383437368001
102	158238	15	8.6554201957139
102	175135	16	0.973
102	182534	17	0.973
102	183876	18	0.973
102	191852	19	0.973
102	211456	20	2.2840345391719
102	233897	21	6.1984311404665
102	235197	22	7.7192385575595
102	242251	23	8.2061103254709
102	243369	24	5.0125091527346
102	267255	25	1.8828175813544
101	23353	3	1.7536804809025
101	23684	4	2.0085769900912
101	48253	5	2.1276612638659
101	65268	6	1.890785263977
101	72189	7	-0.63060290816322
101	72520	8	-4.4932118537774
101	79436	9	-2.9945149582215
101	98417	10	-0.013163144625723
101	121571	11	1.5806181948609
101	123559	12	1.8960531660565
101	131211	13	2.017443668379
101	132136	14	1.7959403603058
101	158238	15	2.1158786586532
101	175135	16	-0.40056899295712
101	182534	17	-4.4892653740961
101	183876	18	-0.24
101	191852	19	-0.59977648639341
101	211456	20	0.39996058678254
101	233897	21	1.930450792776
101	235197	22	2.0681817474868
101	242251	23	1.8787519428506
101	243369	24	0.83387612199043
101	267255	25	-0.058693112030159
67	16435	2	4.0873707023106
67	23353	3	5.8410511832131
67	23684	4	7.8496281733044
67	48253	5	9.9772894371703
67	65268	6	11.868074701147
67	72189	7	11.237471792984
67	72520	8	6.7442599392067
67	79436	9	3.7497449809851
67	98417	10	3.7365818363594
67	121571	11	5.3172000312203
67	123559	12	7.2132531972768
67	131211	13	9.2306968656558
67	132136	14	11.026637225962
67	158238	15	13.142515884615
67	175135	16	12.741946891658
67	182534	17	8.2526815175617
67	183876	18	8.0126815175617
67	191852	19	7.4129050311683
67	211456	20	7.8128656179508
67	233897	21	9.7433164107268
67	235197	22	11.811498158214
67	242251	23	13.690250101064
67	243369	24	14.524126223055
67	267255	25	14.465433111024
3	3	1	1120.2
3	16435	2	1123.4
3	23353	3	1123.4
3	23684	4	1123.4
3	48253	5	1123.4
3	65268	6	1123.4
3	72189	7	1123.4
3	72520	8	1123.4
3	79436	9	1123.6475147086
3	98417	10	1126.3400896419
3	121571	11	1126.6
3	123559	12	1126.6
3	131211	13	1126.6
3	132136	14	1126.6
3	158238	15	1126.6
3	175135	16	1126.6
3	182534	17	1126.6
3	183876	18	1125.891530329
3	191852	19	1120.3743401381
3	211456	20	1113.5972946513
3	233897	21	1104.790693796
3	235197	22	1093.8866423273
3	242251	23	1081.0639326925
3	243369	24	1066.7278864476
3	267255	25	1052.2401675707
2	3	1	908.42284779362
2	16435	2	905.29522010991
2	23353	3	900.19704734274
2	23684	4	893.23358194463
2	48253	5	884.20899487769
2	65268	6	873.20861838259
2	72189	7	860.88479049335
2	72520	8	852.11758964943
2	79436	9	846.90872793711
2	98417	10	846.89013446292
2	121571	11	851.28258219661
2	123559	12	857.63192034264
2	131211	13	865.96944350908
2	132136	14	876.19345440477
2	158238	15	888.38262881464
2	175135	16	902.05391190895
2	182534	17	912.33051996392
2	183876	18	919.54930925113
2	191852	19	925.53539591716
2	211456	20	926.6
2	233897	21	926.6
2	235197	22	926.6
2	242251	23	926.6
2	243369	24	926.6
2	267255	25	926.6
132	23353	3	3.8924368617122
132	23684	4	4.9338441301312
132	48253	5	6.6531849511757
132	65268	6	7.3422886720463
132	72189	7	9.0253573604203
132	72520	8	4.9402143528399
132	79436	9	2.0961631382842
132	98417	10	2.3837762843638
132	121571	11	1.9750284219624
132	123559	12	1.9261673100236
132	131211	13	2.0418237998168
132	132136	14	2.2934840054958
132	158238	15	2.1027307638024
132	175135	16	0.973
132	182534	17	0.973
132	183876	18	3.488954909578
132	191852	19	6.5916139935542
132	211456	20	7.4113282080562
132	233897	21	9.3938416373478
132	235197	22	4.3815357587405
132	242251	23	2.2768285011054
132	243369	24	1.87508400906
132	267255	25	2.3811439006336
131	23353	3	1.8110753219295
131	23684	4	1.8718919144408
131	48253	5	2.1325865124539
131	65268	6	1.9630661460594
131	72189	7	2.1100114470464
131	72520	8	0.8075356243482
131	79436	9	-0.0012634137272833
131	98417	10	0.077747417320499
131	121571	11	-0.036862144321203
131	123559	12	-0.049383455747739
131	131211	13	-0.015999119882473
131	132136	14	0.053854106825311
131	158238	15	-0.0002825274737539
131	175135	16	-3.4252689313057
131	182534	17	-4.5
131	183876	18	1.0515047338838
131	191852	19	2.078451509357
131	211456	20	1.9647592581878
131	233897	21	2.1850436140527
131	235197	22	0.64649446108915
131	242251	23	0.047496947639155
131	243369	24	-0.064483999314252
131	267255	25	0.07657721566502
82	16435	2	3.8939614673485
82	23353	3	5.705036789278
82	23684	4	7.5769287037188
82	48253	5	9.7095152161726
82	65268	6	11.672581362232
82	72189	7	13.782592809278
82	72520	8	14.590128433627
82	79436	9	14.588865019899
82	98417	10	14.66661243722
82	121571	11	14.629750292899
82	123559	12	14.580366837151
82	131211	13	14.564367717268
82	132136	14	14.618221824094
82	158238	15	14.61793929662
82	175135	16	11.192670365314
82	182534	17	6.6926703653143
82	183876	18	7.7441750991981
82	191852	19	9.822626608555
82	211456	20	11.787385866743
82	233897	21	13.972429480796
82	235197	22	14.618923941885
82	242251	23	14.666420889524
82	243369	24	14.60193689021
82	267255	25	14.678514105875
33	3	1	646.62093879805
33	16435	2	649.37989279748
33	23353	3	653.79219728459
33	23684	4	659.77453671947
33	48253	5	667.63579942077
33	65268	6	677.25242683975
33	72189	7	688.74563019881
33	72520	8	701.69773387418
33	79436	9	714.78196197061
33	98417	10	727.85131562347
33	121571	11	740.93690490636
33	123559	12	754.01399734103
33	131211	13	767.07063171322
33	132136	14	780.16027572569
33	158238	15	793.25315798819
33	175135	16	804.99090578248
33	182534	17	812.78793157475
33	183876	18	818.77496746241
33	191852	19	826.50503129149
33	211456	20	837.00981128984
33	233897	21	850.0107653659
33	235197	22	864.5552459511
33	242251	23	879.17499182857
33	243369	24	893.79423489178
33	267255	25	908.4268633253
32	3	1	1230.4456258612
32	16435	2	1231.8251809077
32	23353	3	1234.031457969
32	23684	4	1237.0227969181
32	48253	5	1240.9536506524
32	65268	6	1245.7622364022
32	72189	7	1251.5091632078
32	72520	8	1257.9855814416
32	79436	9	1264.5280656236
32	98417	10	1271.063112163
32	121571	11	1277.6062769767
32	123559	12	1284.1451931259
32	131211	13	1290.6738796651
32	132136	14	1297.2190719583
32	158238	15	1303.7658834682
32	175135	16	1309.6350894091
32	182534	17	1313.5338228717
32	183876	18	1316.5379758848
32	191852	19	1319.758284777
32	211456	20	1320.2
32	233897	21	1320.2
32	235197	22	1320.2
32	242251	23	1320.2
32	243369	24	1320.2
32	267255	25	1320.2
140	23353	3	4.0758501237905
140	23684	4	5.1675322674274
140	48253	5	5.4184208379062
140	65268	6	7.0358143038982
140	72189	7	8.4144658516101
140	72520	8	0.973
140	79436	9	0.973
140	98417	10	0.973
140	121571	11	1.2462659231545
140	123559	12	4.5464448682357
140	131211	13	5.434773190429
140	132136	14	7.0204981195105
140	158238	15	7.5387098577326
140	175135	16	8.1182133490601
140	182534	17	0.973
140	183876	18	0.973
140	191852	19	0.973
140	211456	20	6.781000059661
140	233897	21	4.9003544446418
140	235197	22	7.6683960578555
140	242251	23	8.2076258011624
140	243369	24	9.6633364219834
140	267255	25	2.2430836862397
140	282164	26	2.5569550291581
139	23353	3	1.9043419372779
139	23684	4	1.946754715431
139	48253	5	1.6632270324323
139	65268	6	1.9187156313262
139	72189	7	2.0030087731336
139	72520	8	-2.1235789361806
139	79436	9	-4.4866185003395
139	98417	10	-2.4704337195258
139	121571	11	-0.071985578401946
139	123559	12	2.0643473434099
139	131211	13	1.9586699712323
139	132136	14	2.1297964385035
139	158238	15	1.9177214064868
139	175135	16	1.7931584341638
139	182534	17	-0.46665629845551
139	183876	18	-4.5
139	191852	19	-1.650415951397
139	211456	20	2.2046200847998
139	233897	21	1.2046955611746
139	235197	22	1.8765957432543
139	242251	23	1.7537660516705
139	243369	24	1.868659545117
139	267255	25	-0.014515849510211
139	282164	26	0.063026492625941
86	16435	2	3.907554282968
86	23353	3	5.8118962202459
86	23684	4	7.7586509356769
86	48253	5	9.4218779681092
86	65268	6	11.340593599435
86	72189	7	13.343602372569
86	72520	8	11.220023436389
86	79436	9	6.733404936049
86	98417	10	4.2629712165231
86	121571	11	4.1909856381212
86	123559	12	6.2553329815311
86	131211	13	8.2140029527634
86	132136	14	10.343799391267
86	158238	15	12.261520797754
86	175135	16	14.054679231918
86	182534	17	13.588022933462
86	183876	18	9.088022933462
86	191852	19	7.437606982065
86	211456	20	9.6422270668648
86	233897	21	10.846922628039
86	235197	22	12.723518371294
86	242251	23	14.477284422964
86	243369	24	16.345943968081
86	267255	25	16.331428118571
86	282164	26	16.394454611197
41	3	1	1308.4187231891
41	16435	2	1305.3194678905
41	23353	3	1300.3755728844
41	23684	4	1293.5266307567
41	48253	5	1284.9072756239
41	65268	6	1274.410875159
41	72189	7	1261.9095141371
41	72520	8	1248.9825141626
41	79436	9	1240.2334762763
41	98417	10	1234.7157124737
41	121571	11	1235.7879481531
41	123559	12	1241.114795011
41	131211	13	1248.4547220749
41	132136	14	1257.8545462772
41	158238	15	1269.2789755989
41	175135	16	1282.544827457
41	182534	17	1297.1119005548
41	183876	18	1308.2249234883
41	191852	19	1315.5499007455
41	211456	20	1323.5804601318
41	233897	21	1326.6
41	235197	22	1326.6
41	242251	23	1326.6
41	243369	24	1326.6
41	267255	25	1326.6
41	282164	26	1326.6
40	3	1	629.8
40	16435	2	626.6
40	23353	3	626.6
40	23684	4	626.6
40	48253	5	626.6
40	65268	6	626.6
40	72189	7	626.6
40	72520	8	626.6
40	79436	9	626.6
40	98417	10	626.14380831581
40	121571	11	623.4
40	123559	12	623.4
40	131211	13	623.4
40	132136	14	623.4
40	158238	15	623.4
40	175135	16	623.4
40	182534	17	623.4
40	183876	18	623.4
40	191852	19	623.53733504754
40	211456	20	626.38827607911
40	233897	21	636.2233632191
40	235197	22	648.15497743418
40	242251	23	661.84825690653
40	243369	24	677.51044264308
40	267255	25	693.87858007339
40	282164	26	710.24202964321
118	23353	3	4.3809880143009
118	23684	4	5.1765607769539
118	48253	5	5.7116685955305
118	65268	6	7.9235335714676
118	72189	7	9.0353687627562
118	72520	8	9.3496777143406
118	79436	9	10.17311859004
118	98417	10	2.0720722479436
118	121571	11	2.5463412368906
118	123559	12	2.8106691921082
118	131211	13	2.0088662229514
118	132136	14	0.973
118	158238	15	0.973
118	175135	16	0.973
118	182534	17	2.0784456316227
118	183876	18	1.5532298191914
118	191852	19	2.9850578651944
118	211456	20	6.8146988808262
118	233897	21	7.6581739624821
118	235197	22	10.069461440716
118	242251	23	10.488641705817
118	243369	24	5.8962241171221
118	267255	25	2.202076537579
118	282164	26	2.6966551721216
118	288261	27	2.6351846887108
118	288829	28	2.1309525790301
118	294656	29	2.674105585576
117	23353	3	2.043476515098
117	23684	4	1.9066260318179
117	48253	5	1.7407601068751
117	65268	6	2.1420390962134
117	72189	7	2.0926577203604
117	72520	8	1.8729317481071
117	79436	9	1.8195980675107
117	98417	10	-0.089374447306618
117	121571	11	0.022359713879414
117	123559	12	0.081983175496571
117	131211	13	-0.10436272982741
117	132136	14	-0.87923074894483
117	158238	15	-4.4976965241428
117	175135	16	-4.5
117	182534	17	0.28424119994182
117	183876	18	0.0082511259918103
117	191852	19	0.67726258734474
117	211456	20	1.993443690876
117	233897	21	1.9140252780006
117	235197	22	2.2392352133151
117	242251	23	2.0152669315017
117	243369	24	0.81225886095218
117	267255	25	-0.058778013270349
117	282164	26	0.056483110608532
117	288261	27	0.040581852141766
117	288829	28	-0.076204665154219
117	294656	29	0.050637463699097
75	16435	2	3.968738758417
75	23353	3	6.012215273515
75	23684	4	7.9188413053328
75	48253	5	9.6596014122079
75	65268	6	11.801640508421
75	72189	7	13.894298228782
75	72520	8	15.767229976889
75	79436	9	17.5868280444
75	98417	10	17.497453597093
75	121571	11	17.519813310972
75	123559	12	17.601796486469
75	131211	13	17.497433756642
75	132136	14	16.618203007697
75	158238	15	12.120506483554
75	175135	16	7.6205064835539
75	182534	17	7.9047476834957
75	183876	18	7.9129988094876
75	191852	19	8.5902613968323
75	211456	20	10.583705087708
75	233897	21	12.497730365709
75	235197	22	14.736965579024
75	242251	23	16.752232510526
75	243369	24	17.564491371478
75	267255	25	17.505713358208
75	282164	26	17.562196468816
75	288261	27	17.602778320958
75	288829	28	17.526573655804
75	294656	29	17.577211119503
19	3	1	1108.4500308046
19	16435	2	1105.3119156215
19	23353	3	1100.2292498473
19	23684	4	1093.152862954
19	48253	5	1084.2748065214
19	65268	6	1073.4111208684
19	72189	7	1060.4559793285
19	72520	8	1045.5622509428
19	79436	9	1028.9867001537
19	98417	10	1014.9483246324
19	121571	11	1002.4576367413
19	123559	12	990.06068770306
19	131211	13	977.65463133163
19	132136	14	965.33886867264
19	158238	15	955.33702674057
19	175135	16	948.51665982896
19	182534	17	943.56554009101
19	183876	18	942.90857475572
19	191852	19	950.86864753733
19	211456	20	960.53386024477
19	233897	21	972.18140491793
19	235197	22	985.91649349396
19	242251	23	1001.7603764198
19	243369	24	1019.190815364
19	267255	25	1036.7409920986
19	282164	26	1054.2824167075
19	288261	27	1071.8420040712
19	288829	28	1089.3839289675
19	294656	29	1106.9334985396
18	3	1	1129.8
18	16435	2	1129.8
18	23353	3	1129.8
18	23684	4	1129.8
18	48253	5	1129.8
18	65268	6	1129.8
18	72189	7	1129.8
18	72520	8	1129.8
18	79436	9	1131.6269880802
18	98417	10	1142.0181943101
18	121571	11	1154.3323632587
18	123559	12	1166.7293122969
18	131211	13	1179.1353686684
18	132136	14	1191.4511313274
18	158238	15	1201.4529732594
18	175135	16	1208.273340171
18	182534	17	1213.3727887495
18	183876	18	1219.6106125797
18	191852	19	1220.2
18	211456	20	1220.2
18	233897	21	1220.2
18	235197	22	1220.2
18	242251	23	1220.2
18	243369	24	1220.2
18	267255	25	1220.2
18	282164	26	1220.2
18	288261	27	1220.2
18	288829	28	1220.2
18	294656	29	1220.2
156	23353	3	4.2775896996508
156	23684	4	5.5970138705909
156	48253	5	5.650394768384
156	65268	6	7.8921123333241
156	72189	7	8.8057402479431
156	72520	8	3.5559896079828
156	79436	9	2.0405233460462
156	98417	10	2.3150455827807
156	121571	11	1.7309530274304
156	123559	12	2.3102739680719
156	131211	13	2.2439851449323
156	132136	14	2.0313625748504
156	158238	15	1.7822650705473
156	175135	16	0.973
156	182534	17	0.973
156	183876	18	5.733772440178
156	191852	19	6.2299725568826
156	211456	20	7.1621428358453
156	233897	21	8.2669825870487
156	235197	22	4.4411266953014
156	242251	23	2.0727717142411
156	243369	24	2.2514322066733
156	267255	25	1.8576185947242
156	282164	26	2.123937597963
156	288261	27	2.0140121165232
156	288829	28	1.9775581500704
156	294656	29	2.5182193125893
156	309448	30	1.9318359478835
156	325618	31	2.150438429244
155	23353	3	2.0226879880065
155	23684	4	2.1070684878761
155	48253	5	1.7075701034511
155	65268	6	2.127183037533
155	72189	7	2.0316611764533
155	72520	8	0.43219067583145
155	79436	9	-0.0078189910179933
155	98417	10	0.069513578736222
155	121571	11	-0.097146340070758
155	123559	12	0.069120886547026
155	131211	13	0.048274106481113
155	132136	14	-0.01276331488276
155	158238	15	-0.082742676662747
155	175135	16	-4.1462080780366
155	182534	17	-4.5
155	183876	18	2.2216952725151
155	191852	19	1.9352594817802
155	211456	20	1.8978637261037
155	233897	21	1.9138338439004
155	235197	22	0.68945420626741
155	242251	23	0.0013258491316819
155	243369	24	0.051472676715347
155	267255	25	-0.060930234685074
155	282164	26	0.015983895601238
155	288261	27	-0.015481447011698
155	288829	28	-0.025352333639749
155	294656	29	0.12707265750505
155	309448	30	-0.041045736777596
155	325618	31	0.021541906709317
94	16435	2	3.8551982831369
94	23353	3	5.8778862711434
94	23684	4	7.9849547590195
94	48253	5	9.6925248624706
94	65268	6	11.819707900004
94	72189	7	13.851369076457
94	72520	8	14.283559752288
94	79436	9	14.27574076127
94	98417	10	14.345254340007
94	121571	11	14.248107999936
94	123559	12	14.317228886483
94	131211	13	14.365502992964
94	132136	14	14.352739678081
94	158238	15	14.269997001418
94	175135	16	10.123788923382
94	182534	17	5.6237889233819
94	183876	18	7.845484195897
94	191852	19	9.7807436776772
94	211456	20	11.678607403781
94	233897	21	13.592441247681
94	235197	22	14.281895453949
94	242251	23	14.28322130308
94	243369	24	14.334693979796
94	267255	25	14.273763745111
94	282164	26	14.289747640712
94	288261	27	14.2742661937
94	288829	28	14.24891386006
94	294656	29	14.375986517565
94	309448	30	14.334940780788
94	325618	31	14.356482687497
57	3	1	930.43856399906
57	16435	2	931.78886249336
57	23353	3	934.00769242433
57	23684	4	940.02387617271
57	48253	5	944.01724295885
57	65268	6	948.86660771131
57	72189	7	954.64326074705
57	72520	8	961.02640025511
57	79436	9	967.42749584825
57	98417	10	973.83526199451
57	121571	11	980.23612911132
57	123559	12	986.63667856042
57	131211	13	993.04000379646
57	132136	14	999.44108232374
57	158238	15	1005.8342815052
57	175135	16	1011.2678371374
57	182534	17	1014.6887641447
57	183876	18	1017.9940624867
57	191852	19	1023.3348676153
57	211456	20	1032.6869546405
57	233897	21	1045.3297543352
57	235197	22	1059.5256896028
57	242251	23	1073.8423700408
57	243369	24	1088.1692827265
57	267255	25	1102.4813568679
57	282164	26	1116.8167567203
57	288261	27	1131.1174878281
57	288829	28	1145.4285802481
57	294656	29	1159.7379710225
57	309448	30	1174.080882453
57	325618	31	1188.3920771427
56	3	1	803.39255142502
56	16435	2	800.69179751618
56	23353	3	796.25387980069
56	23684	4	791.37334966203
56	48253	5	783.38708011099
56	65268	6	773.68891409257
56	72189	7	762.13627925663
56	72520	8	749.37074194855
56	79436	9	736.5692945568
56	98417	10	723.7545068339
56	121571	11	710.95351636823
56	123559	12	698.15316120108
56	131211	13	685.34725478262
56	132136	14	672.54584152058
56	158238	15	659.76018603457
56	175135	16	648.89370613849
56	182534	17	642.05224962875
56	183876	18	635.93950239522
56	191852	19	628.8424860542
56	211456	20	623.86296003383
56	233897	21	623.4
56	235197	22	623.4
56	242251	23	623.4
56	243369	24	623.4
56	267255	25	623.4
56	282164	26	623.4
56	288261	27	623.4
56	288829	28	623.4
56	294656	29	623.4
56	309448	30	623.4
56	325618	31	623.4
154	23353	3	4.0201702237249
154	23684	4	5.3373449102786
154	48253	5	6.8363291442584
154	65268	6	7.1324394678246
154	72189	7	9.1666108115264
154	72520	8	2.2749361581648
154	79436	9	2.3527836505864
154	98417	10	1.861153281117
154	121571	11	2.2687390022561
154	123559	12	1.9831272898842
154	131211	13	2.2011916619704
154	132136	14	0.973
154	158238	15	0.973
154	175135	16	0.973
154	182534	17	0.973
154	183876	18	0.973
154	191852	19	2.3928314974046
154	211456	20	2.8476744939923
154	233897	21	4.1939262137117
154	235197	22	4.8843655000986
154	242251	23	6.7480601887022
154	243369	24	7.1637809796912
154	267255	25	7.8935296647052
154	282164	26	4.060385646011
154	288261	27	2.0964457981167
154	288829	28	0.973
154	294656	29	0.973
154	309448	30	2.5724359863159
154	325618	31	1.4025920893691
154	326287	32	5.4314504735731
154	331148	33	5.8678303131552
154	331794	34	7.5064813792607
154	348578	35	8.6111896408776
154	359780	36	1.9845169213586
153	23353	3	1.8440974557865
153	23684	4	2.0040255775256
153	48253	5	2.1354750293586
153	65268	6	1.8527100234549
153	72189	7	2.1165777295176
153	72520	8	0.068340987669281
153	79436	9	0.088097949274815
153	98417	10	-0.054778746115044
153	121571	11	0.063133594524116
153	123559	12	-0.020081566695589
153	131211	13	0.042563488013112
153	132136	14	-0.54587526976962
153	158238	15	-4.4924789094782
153	175135	16	-4.4773152546718
153	182534	17	-4.4379339468051
153	183876	18	-0.21151953282189
153	191852	19	2.2083452040184
153	211456	20	1.6586621363287
153	233897	21	1.9765652272571
153	235197	22	1.8207234517252
153	242251	23	2.1472998155793
153	243369	24	1.8933665607567
153	267255	25	1.8121522604511
153	282164	26	0.59126647221397
153	288261	27	0.0132421214832
153	288829	28	-4.3999508737499
153	294656	29	-3.7805360490372
153	309448	30	0.69707463787225
153	325618	31	-0.033081230339595
153	326287	32	1.8843822216149
153	331148	33	1.6979312887182
153	331794	34	1.9332763688313
153	348578	35	1.9380174118686
153	359780	36	-0.017312680212781
93	16435	2	4.0249613912327
93	23353	3	5.8690588470192
93	23684	4	7.8730844245448
93	48253	5	10.008559453903
93	65268	6	11.861269477358
93	72189	7	13.977847206876
93	72520	8	14.046188194545
93	79436	9	14.13428614382
93	98417	10	14.079507397705
93	121571	11	14.142640992229
93	123559	12	14.122559425534
93	131211	13	14.165122913547
93	132136	14	13.619247643777
93	158238	15	9.1267687342988
93	175135	16	4.649453479627
93	182534	17	0.21151953282189
93	183876	18	0
93	191852	19	2.2083452040184
93	211456	20	3.8670073403471
93	233897	21	5.8435725676042
93	235197	22	7.6642960193294
93	242251	23	9.8115958349087
93	243369	24	11.704962395665
93	267255	25	13.517114656116
93	282164	26	14.10838112833
93	288261	27	14.121623249814
93	288829	28	9.7216723760637
93	294656	29	5.9411363270265
93	309448	30	6.6382109648988
93	325618	31	6.6051297345592
93	326287	32	8.4895119561741
93	331148	33	10.187443244892
93	331794	34	12.120719613724
93	348578	35	14.058737025592
93	359780	36	14.041424345379
55	3	1	1003.2720563105
55	16435	2	1000.1514414711
55	23353	3	995.13667546627
55	23684	4	988.17339173129
55	48253	5	979.12962740983
55	65268	6	968.07779395226
55	72189	7	955.06176757779
55	72520	8	940.9655229639
55	79436	9	926.87308938014
55	98417	10	912.78115509015
55	121571	11	898.66906377189
55	123559	12	884.5557953534
55	131211	13	870.43602768004
55	132136	14	856.40231250041
55	158238	15	845.25204798422
55	175135	16	838.58666840272
55	182534	17	836.40108716083
55	183876	18	836.40100014607
55	191852	19	835.06635983239
55	211456	20	832.07053804211
55	233897	21	827.52077065332
55	235197	22	823.98445470192
55	242251	23	820.2
55	243369	24	820.2
55	267255	25	820.2
55	282164	26	820.2
55	288261	27	820.2
55	288829	28	820.2
55	294656	29	820.2
55	309448	30	819.62475496948
55	325618	31	814.15154396596
55	326287	32	806.52516603547
55	331148	33	797.12655968565
55	331794	34	785.82849439223
55	348578	35	772.59558465884
55	359780	36	758.48763305264
54	3	1	629.8
54	16435	2	629.8
54	23353	3	629.8
54	23684	4	626.6
54	48253	5	626.6
54	65268	6	626.6
54	72189	7	626.6
54	72520	8	626.6
54	79436	9	626.6
54	98417	10	626.6
54	121571	11	626.6
54	123559	12	626.6
54	131211	13	626.6
54	132136	14	626.6
54	158238	15	626.6
54	175135	16	626.6
54	182534	17	626.6
54	183876	18	626.6
54	191852	19	626.55233711891
54	211456	20	626.12436257744
54	233897	21	624.27246239199
54	235197	22	618.69118291345
54	242251	23	609.86293570562
54	243369	24	599.05493822509
54	267255	25	586.34500100962
54	282164	26	572.30479789436
54	288261	27	558.19291432808
54	288829	28	546.46418399739
54	294656	29	539.13704767036
54	309448	30	532.57459161581
54	325618	31	529.8
54	326287	32	529.8
54	331148	33	529.8
54	331794	34	529.8
54	348578	35	529.8
54	359780	36	529.8
126	23353	3	4.4025144312497
126	23684	4	5.2941760387477
126	48253	5	6.216149347893
126	65268	6	7.4880475295431
126	72189	7	7.8059964109361
126	72520	8	2.2151242615822
126	79436	9	2.0703362410242
126	98417	10	2.0860657492139
126	121571	11	2.026572253984
126	123559	12	1.779612169999
126	131211	13	2.0354900218481
126	132136	14	2.0913120859858
126	158238	15	1.8629548661413
126	175135	16	0.973
126	182534	17	0.973
126	183876	18	0.973
126	191852	19	2.4938365292933
126	211456	20	0.973
126	233897	21	5.5535530665101
126	235197	22	6.7627101952562
126	242251	23	8.4313834430478
126	243369	24	3.3473361114019
126	267255	25	1.9865426452474
126	282164	26	2.1632452015025
126	288261	27	0.973
126	288829	28	0.973
126	294656	29	7.4470126120507
126	309448	30	6.8951421633947
126	325618	31	2.0829670821126
126	326287	32	1.773279527856
126	331148	33	2.3056378499465
126	331794	34	1.9938065670129
126	348578	35	1.7078645546768
126	359780	36	2.2001532413949
126	365063	37	1.7546690529323
126	365910	38	2.1601295923106
126	371213	39	1.976868735808
126	383104	40	2.0597442875401
126	396714	41	2.0585460749339
126	397335	42	1.908528685978
126	401844	43	1.8484112008712
125	23353	3	2.0887199101667
125	23684	4	1.9719608048582
125	48253	5	1.91929198283
125	65268	6	1.9868776878086
125	72189	7	1.7741334689284
125	72520	8	0.064339332305826
125	79436	9	0.0197004432627
125	98417	10	0.023713152823039
125	121571	11	0.0055162188014961
125	123559	12	-0.067571986620315
125	131211	13	0.010003599084449
125	132136	14	0.026138397746253
125	158238	15	-0.042042379484046
125	175135	16	-0.81630467235813
125	182534	17	-4.4729181336859
125	183876	18	-0.95
125	191852	19	0.50370234528236
125	211456	20	-0.32706909678861
125	233897	21	1.7469985698909
125	235197	22	1.8531441755476
125	242251	23	2.0348231523321
125	243369	24	0.4109909148304
125	267255	25	-0.0037932143756194
125	282164	26	0.048451297194697
125	288261	27	-2.9004251608212
125	288829	28	-0.48995451371419
125	294656	29	1.9041178283445
125	309448	30	1.4864367295155
125	325618	31	0.02330153793795
125	326287	32	-0.068910384948831
125	331148	33	0.090071984250098
125	331794	34	-0.0042559515219178
125	348578	35	-0.088785415363963
125	359780	36	0.059289615261369
125	365063	37	-0.074141381820665
125	365910	38	0.048020332471934
125	371213	39	-0.0075105024524955
125	383104	40	0.017173798354342
125	396714	41	0.016295026047155
125	397335	42	-0.028455272300635
125	401844	43	-0.045520889884791
79	16435	2	3.8450839337437
79	23353	3	5.9338038439104
79	23684	4	7.9057646487686
79	48253	5	9.8250566315986
79	65268	6	11.811934319407
79	72189	7	13.586067788336
79	72520	8	13.650407120641
79	79436	9	13.670107563904
79	98417	10	13.693820716727
79	121571	11	13.699336935529
79	123559	12	13.631764948908
79	131211	13	13.641768547993
79	132136	14	13.667906945739
79	158238	15	13.625864566255
79	175135	16	12.809559893897
79	182534	17	8.336641760211
79	183876	18	7.386641760211
79	191852	19	7.8903441054933
79	211456	20	7.5632750087047
79	233897	21	9.3102735785956
79	235197	22	11.163417754143
79	242251	23	13.198240906475
79	243369	24	13.609231821306
79	267255	25	13.60543860693
79	282164	26	13.653889904125
79	288261	27	10.753464743304
79	288829	28	10.263510229589
79	294656	29	12.167628057934
79	309448	30	13.654064787449
79	325618	31	13.677366325387
79	326287	32	13.608455940439
79	331148	33	13.698527924689
79	331794	34	13.694271973167
79	348578	35	13.605486557803
79	359780	36	13.664776173064
79	365063	37	13.590634791243
79	365910	38	13.638655123715
79	371213	39	13.631144621263
79	383104	40	13.648318419617
79	396714	41	13.664613445664
79	397335	42	13.636158173364
79	401844	43	13.590637283479
27	3	1	231.16644424739
27	16435	2	234.23755250863
27	23353	3	239.28059915234
27	23684	4	246.27589585547
27	48253	5	255.30218191189
27	65268	6	266.20676661065
27	72189	7	279.12395785292
27	72520	8	292.77339061824
27	79436	9	306.43323582877
27	98417	10	320.08531883677
27	121571	11	333.74152467433
27	123559	12	347.37134834128
27	131211	13	361.01829027351
27	132136	14	374.65453695364
27	158238	15	388.3092528188
27	175135	16	401.81794602026
27	182534	17	412.17958778047
27	183876	18	419.06125718998
27	191852	19	425.13850867263
27	211456	20	426.6
27	233897	21	426.6
27	235197	22	426.6
27	242251	23	426.6
27	243369	24	426.6
27	267255	25	426.6
27	282164	26	426.6
27	288261	27	426.6
27	288829	28	429.30382571299
27	294656	29	434.36502370209
27	309448	30	440.26532954537
27	325618	31	446.37006431179
27	326287	32	452.46872341489
27	331148	33	458.56232771014
27	331794	34	464.65778956851
27	348578	35	470.75992110015
27	359780	36	476.8602704166
27	365063	37	482.95562446492
27	365910	38	489.0534023362
27	371213	39	495.14692446191
27	383104	40	501.24015014657
27	396714	41	507.33811492852
27	397335	42	513.44030346467
27	401844	43	519.53902742218
26	3	1	1220.2
26	16435	2	1220.2
26	23353	3	1220.2
26	23684	4	1223.4
26	48253	5	1223.4
26	65268	6	1223.4
26	72189	7	1223.4
26	72520	8	1223.4
26	79436	9	1223.4
26	98417	10	1223.4
26	121571	11	1223.4
26	123559	12	1223.4
26	131211	13	1223.4
26	132136	14	1223.4
26	158238	15	1223.4
26	175135	16	1223.4
26	182534	17	1223.4
26	183876	18	1224.03860738
26	191852	19	1228.964181121
26	211456	20	1235.6380078198
26	233897	21	1244.1123461155
26	235197	22	1254.4385970231
26	242251	23	1266.7523580018
26	243369	24	1280.3416284229
26	267255	25	1293.9629359572
26	282164	26	1307.5899666934
26	288261	27	1320.1503317206
26	288829	28	1330.0278647406
26	294656	29	1340.1508049336
26	309448	30	1351.9520510616
26	325618	31	1364.1621770176
26	326287	32	1376.3601509936
26	331148	33	1388.5480148104
26	331794	34	1400.7395939531
26	348578	35	1412.9445131596
26	359780	36	1425.145867744
26	365063	37	1437.3372312551
26	365910	38	1449.5334426727
26	371213	39	1461.7211421415
26	383104	40	1473.9082486964
26	396714	41	1486.1048339554
26	397335	42	1498.309867177
26	401844	43	1510.5079708688
114	23353	3	4.2612531989358
114	23684	4	5.0638168738535
114	48253	5	6.6723531744614
114	65268	6	3.4406039990846
114	72189	7	1.8075771061439
114	72520	8	1.8019393801371
114	79436	9	0.973
114	98417	10	0.973
114	121571	11	1.2704247929635
114	123559	12	1.6240939018819
114	131211	13	1.3972887783529
114	132136	14	6.1706443732893
114	158238	15	5.5001318835725
114	175135	16	1.7092869237527
114	182534	17	1.7761223900727
114	183876	18	1.8340532142761
114	191852	19	1.6793880791625
114	211456	20	1.7526605097981
114	233897	21	1.7487968168196
114	235197	22	1.5553090737533
114	242251	23	1.7350366249396
114	243369	24	1.7514247940439
114	267255	25	1.6452180007131
114	282164	26	1.9409268460094
114	288261	27	1.4503896016568
114	288829	28	1.7476204856049
114	294656	29	1.5276377567472
114	309448	30	0.973
114	325618	31	4.8782762558953
114	326287	32	6.4951169917381
114	331148	33	3.5314196499358
114	331794	34	1.7974736970105
114	348578	35	1.742730398272
114	359780	36	1.8273625238268
114	365063	37	1.4970936185381
114	365910	38	1.9875779881766
114	371213	39	1.5857330604548
114	383104	40	1.7972262431862
114	396714	41	1.790818260816
114	397335	42	1.7480152138097
114	401844	43	1.764559708729
113	23353	3	2.0114827913768
113	23684	4	1.8891826550267
113	48253	5	2.1014851483679
113	65268	6	0.67454730057091
113	72189	7	0.030748434129638
113	72520	8	0.027604720711242
113	79436	9	-2.5868803382508
113	98417	10	-0.92038604621543
113	121571	11	-0.12328466841864
113	123559	12	0.083202512410935
113	131211	13	-0.048785306573846
113	132136	14	2.0797430076567
113	158238	15	1.4811931929362
113	175135	16	-0.0073710561566998
113	182534	17	0.018294686260633
113	183876	18	0.03963980667293
113	191852	19	-0.020223704602103
113	211456	20	0.0082088341726916
113	233897	21	0.0064912440232003
113	235197	22	-0.067512559096794
113	242251	23	0.0031246144720356
113	243369	24	0.009275785591452
113	267255	25	-0.031588120935483
113	282164	26	0.081816034116782
113	288261	27	-0.1078635794227
113	288829	28	0.0093228780035854
113	294656	29	-0.075746003880708
113	309448	30	-4.4759144270362
113	325618	31	1.7944192789821
113	326287	32	2.0444888070784
113	331148	33	0.7136798468617
113	331794	34	0.028030866195914
113	348578	35	0.0062724029901435
113	359780	36	0.038252669202629
113	365063	37	-0.089257110198959
113	365910	38	0.1006231497135
113	371213	39	-0.055372250545769
113	383104	40	0.027005590430926
113	396714	41	0.02369779188186
113	397335	42	0.0067094085062838
113	401844	43	0.012776826601476
73	16435	2	3.8655491395317
73	23353	3	5.8770319309085
73	23684	4	7.7662145859351
73	48253	5	9.8676997343031
73	65268	6	10.542247034874
73	72189	7	10.572995469004
73	72520	8	10.600600189715
73	79436	9	8.0137198514641
73	98417	10	7.0933338052486
73	121571	11	6.97004913683
73	123559	12	7.0532516492409
73	131211	13	7.0044663426671
73	132136	14	9.0842093503237
73	158238	15	10.56540254326
73	175135	16	10.558031487103
73	182534	17	10.576326173364
73	183876	18	10.615965980037
73	191852	19	10.595742275435
73	211456	20	10.603951109607
73	233897	21	10.610442353631
73	235197	22	10.542929794534
73	242251	23	10.546054409006
73	243369	24	10.555330194597
73	267255	25	10.523742073662
73	282164	26	10.605558107779
73	288261	27	10.497694528356
73	288829	28	10.507017406359
73	294656	29	10.431271402479
73	309448	30	5.9553569754426
73	325618	31	7.7497762544247
73	326287	32	9.7942650615031
73	331148	33	10.507944908365
73	331794	34	10.535975774561
73	348578	35	10.542248177551
73	359780	36	10.580500846754
73	365063	37	10.491243736555
73	365910	38	10.591866886268
73	371213	39	10.536494635722
73	383104	40	10.563500226153
73	396714	41	10.587198018035
73	397335	42	10.593907426541
73	401844	43	10.606684253143
15	3	1	1120.2
15	16435	2	1123.4
15	23353	3	1123.4
15	23684	4	1123.4
15	48253	5	1123.4
15	65268	6	1123.4
15	72189	7	1123.4
15	72520	8	1123.4
15	79436	9	1123.4
15	98417	10	1123.4
15	121571	11	1124.4335678088
15	123559	12	1129.13605722
15	131211	13	1135.9432354576
15	132136	14	1144.0872425282
15	158238	15	1154.1509603688
15	175135	16	1164.6971440784
15	182534	17	1175.248872546
15	183876	18	1185.8204200698
15	191852	19	1196.3816709377
15	211456	20	1206.9500754656
15	233897	21	1217.5258885192
15	235197	22	1228.0748653284
15	242251	23	1238.6329101843
15	243369	24	1249.1782532872
15	267255	25	1259.718826408
15	282164	26	1270.285730299
15	288261	27	1280.8359362534
15	288829	28	1291.3687289645
15	294656	29	1301.9109321285
15	309448	30	1309.8906929363
15	325618	31	1316.5172229544
15	326287	32	1324.8866022957
15	331148	33	1333.6210984258
15	331794	34	1341.4656034717
15	348578	35	1348.9580337761
15	359780	36	1356.411187135
15	365063	37	1363.859910093
15	365910	38	1371.3318892824
15	371213	39	1378.7941601361
15	383104	40	1386.2405907545
15	396714	41	1393.7096838291
15	397335	42	1401.1782317663
15	401844	43	1408.6484054582
14	3	1	1308.4587430023
14	16435	2	1305.366833751
14	23353	3	1300.3778435968
14	23684	4	1293.4343398672
14	48253	5	1284.472237588
14	65268	6	1273.9885215615
14	72189	7	1263.4282771011
14	72520	8	1252.8914657998
14	79436	9	1243.2013348009
14	98417	10	1236.5798465771
14	121571	11	1229.6773869853
14	123559	12	1224.758365668
14	131211	13	1223.4
14	132136	14	1223.4
14	158238	15	1223.4
14	175135	16	1223.4
14	182534	17	1223.4
14	183876	18	1223.4
14	191852	19	1223.4
14	211456	20	1223.4
14	233897	21	1223.4
14	235197	22	1223.4
14	242251	23	1223.4
14	243369	24	1223.4
14	267255	25	1223.4
14	282164	26	1223.4
14	288261	27	1223.4
14	288829	28	1223.4
14	294656	29	1223.4
14	309448	30	1223.4
14	325618	31	1223.7310077238
14	326287	32	1226.491790308
14	331148	33	1232.1904152474
14	331794	34	1239.2337392317
14	348578	35	1246.6880337761
14	359780	36	1254.141187135
14	365063	37	1261.589910093
14	365910	38	1269.0618892824
14	371213	39	1276.5241601361
14	383104	40	1283.9705907545
14	396714	41	1291.4396838291
14	397335	42	1298.9082317663
14	401844	43	1306.3784054582
108	23353	3	4.2705466020897
108	23684	4	5.1515498321148
108	48253	5	5.7241588309993
108	65268	6	7.420657373585
108	72189	7	3.1433225410398
108	72520	8	1.782519694512
108	79436	9	1.7071650417185
108	98417	10	2.1909605775409
108	121571	11	1.8721069866235
108	123559	12	1.7477472425366
108	131211	13	1.6498069517699
108	132136	14	2.045035561312
108	158238	15	1.7130775502167
108	175135	16	1.9680049332049
108	182534	17	1.9499329601875
108	183876	18	1.6539717747957
108	191852	19	1.9301474623127
108	211456	20	2.1215771869715
108	233897	21	1.5532659601681
108	235197	22	1.9502122408132
108	242251	23	1.9891194301701
108	243369	24	1.9602473176851
108	267255	25	1.6312051654174
108	282164	26	1.9680627824182
108	288261	27	1.73641761234
108	288829	28	1.9505266241582
108	294656	29	1.7472109476865
108	309448	30	2.1569365802158
108	325618	31	1.5776037242151
108	326287	32	1.9112114049231
108	331148	33	2.0618606889107
108	331794	34	0.973
108	348578	35	0.973
108	359780	36	0.973
108	365063	37	1.4468842258587
108	365910	38	1.627224310006
108	371213	39	5.3346718591904
108	383104	40	5.3241388938123
108	396714	41	6.9768056962237
108	397335	42	4.7910625372455
108	401844	43	1.5248090763206
108	402651	44	2.1941977131506
108	415848	45	1.6449190026661
108	424278	46	1.9132114838418
108	428338	47	1.725052784672
107	23353	3	1.8692658509198
107	23684	4	1.8375793105783
107	48253	5	1.7089418510441
107	65268	6	1.9650428057532
107	72189	7	0.4320573264702
107	72520	8	-0.028654475556687
107	79436	9	-0.052893564591651
107	98417	10	0.10802395203384
107	121571	11	0.00011490631615629
107	123559	12	-0.040864983794744
107	131211	13	-0.072352703860961
107	132136	14	0.060497308445628
107	158238	15	-0.050991125414148
107	175135	16	0.034853408040945
107	182534	17	0.027792859808542
107	183876	18	-0.070959488640074
107	191852	19	0.022632209453732
107	211456	20	0.084713779366576
107	233897	21	-0.10539644563804
107	235197	22	0.029192724784371
107	242251	23	0.04105678634718
107	243369	24	0.030257451506332
107	267255	25	-0.079289840140845
107	282164	26	0.034394124532119
107	288261	27	-0.043188135535457
107	288829	28	0.028901567393914
107	294656	29	-0.039225317540113
107	309448	30	0.096928547762801
107	325618	31	-0.097128250440583
107	326287	32	0.016257175630891
107	331148	33	0.065281648582312
107	331794	34	-3.3153676398187
107	348578	35	-2.3593783315957
107	359780	36	-1.0780897386494
107	365063	37	0.041238931657281
107	365910	38	0.16476199534023
107	371213	39	2.0441199672106
107	383104	40	1.6333388259006
107	396714	41	1.9101127715991
107	397335	42	0.98772764862857
107	401844	43	-0.1150479283696
107	402651	44	0.1092702940735
107	415848	45	-0.074859229822177
107	424278	46	0.016013285026419
107	428338	47	-0.046748845274561
70	16435	2	4.4217668174019
70	23353	3	6.2910326683216
70	23684	4	8.1286119788999
70	48253	5	9.837553829944
70	65268	6	11.802596635697
70	72189	7	12.234653962167
70	72520	8	12.205999486611
70	79436	9	12.153105922019
70	98417	10	12.261129874053
70	121571	11	12.261244780369
70	123559	12	12.220379796574
70	131211	13	12.148027092713
70	132136	14	12.208524401159
70	158238	15	12.157533275745
70	175135	16	12.192386683786
70	182534	17	12.220179543594
70	183876	18	12.149220054954
70	191852	19	12.171852264408
70	211456	20	12.256566043775
70	233897	21	12.151169598136
70	235197	22	12.180362322921
70	242251	23	12.221419109268
70	243369	24	12.251676560774
70	267255	25	12.172386720634
70	282164	26	12.206780845166
70	288261	27	12.16359270963
70	288829	28	12.192494277024
70	294656	29	12.153268959484
70	309448	30	12.250197507247
70	325618	31	12.153069256806
70	326287	32	12.169326432437
70	331148	33	12.234608081019
70	331794	34	8.9192404412007
70	348578	35	6.559862109605
70	359780	36	5.4817723709557
70	365063	37	5.5230113026129
70	365910	38	5.6877732979532
70	371213	39	7.7318932651638
70	383104	40	9.3652320910643
70	396714	41	11.275344862663
70	397335	42	12.263072511292
70	401844	43	12.148024582922
70	402651	44	12.257294876996
70	415848	45	12.182435647174
70	424278	46	12.1984489322
70	428338	47	12.151700086926
9	3	1	1139.1314235378
9	16435	2	1142.1877652198
9	23353	3	1147.0983965408
9	23684	4	1153.6445178196
9	48253	5	1161.7667591748
9	65268	6	1171.5078612979
9	72189	7	1182.3883938361
9	72520	8	1193.2966478055
9	79436	9	1204.2084757797
9	98417	10	1215.116443545
9	121571	11	1226.0445159831
9	123559	12	1236.9820525894
9	131211	13	1247.8855666684
9	132136	14	1258.8145341581
9	158238	15	1269.7272544169
9	175135	16	1280.6513858921
9	182534	17	1291.5647850228
9	183876	18	1302.4668465943
9	191852	19	1313.3800752334
9	211456	20	1324.486946105
9	233897	21	1336.2484431823
9	235197	22	1348.2122651697
9	242251	23	1360.4113971897
9	243369	24	1372.6158283909
9	267255	25	1384.8285109787
9	282164	26	1397.0393585026
9	288261	27	1409.2470119136
9	288829	28	1421.4511289974
9	294656	29	1433.6483973424
9	309448	30	1445.8726859895
9	325618	31	1458.0535226976
9	326287	32	1470.26770226
9	331148	33	1482.4832293949
9	331794	34	1493.300756608
9	348578	35	1500.1792053339
9	359780	36	1505.9960852873
9	365063	37	1508.5234218709
9	365910	38	1505.1086765783
9	371213	39	1500.3016622965
9	383104	40	1494.2117621055
9	396714	41	1486.8771138326
9	397335	42	1478.36914938
9	401844	43	1469.7460452151
9	402651	44	1461.1054180033
9	415848	45	1452.4833807363
9	424278	46	1443.8583757317
9	428338	47	1435.242537006
8	3	1	1326.6957117689
8	16435	2	1328.2238826099
8	23353	3	1330.6791982704
8	23684	4	1333.9522589098
8	48253	5	1338.0133795874
8	65268	6	1342.8839306489
8	72189	7	1348.324196918
8	72520	8	1353.7783239028
8	79436	9	1359.2342378898
8	98417	10	1364.6882217725
8	121571	11	1370.1522579915
8	123559	12	1375.6210262947
8	131211	13	1381.0727833342
8	132136	14	1386.537267079
8	158238	15	1391.9936272085
8	175135	16	1397.455692946
8	182534	17	1402.9123925114
8	183876	18	1408.3634232971
8	191852	19	1413.8078703712
8	211456	20	1418.1773008006
8	233897	21	1420.0256727823
8	235197	22	1420.2
8	242251	23	1420.2
8	243369	24	1420.2
8	267255	25	1420.2
8	282164	26	1420.2
8	288261	27	1420.2
8	288829	28	1420.2
8	294656	29	1420.2
8	309448	30	1420.2
8	325618	31	1420.2
8	326287	32	1420.2
8	331148	33	1420.2
8	331794	34	1420.2
8	348578	35	1420.2
8	359780	36	1419.8342612625
8	365063	37	1416.1690989312
8	365910	38	1411.8986765783
8	371213	39	1407.0916622965
8	383104	40	1401.0017621055
8	396714	41	1393.6671138326
8	397335	42	1385.15914938
8	401844	43	1376.5360452151
8	402651	44	1367.8954180033
8	415848	45	1359.2733807363
8	424278	46	1350.6483757317
8	428338	47	1342.032537006
148	23353	3	4.6006908075424
148	23684	4	5.1509424353409
148	48253	5	6.57319856143
148	65268	6	7.6266264289244
148	72189	7	5.055368800175
148	72520	8	2.0400737114701
148	79436	9	1.6554724286656
148	98417	10	2.0299616771734
148	121571	11	1.9557787297611
148	123559	12	1.8093017663137
148	131211	13	2.2136304688334
148	132136	14	1.6531399517099
148	158238	15	0.973
148	175135	16	0.973
148	182534	17	2.2908059609635
148	183876	18	5.4736125330601
148	191852	19	2.3742641915446
148	211456	20	3.852130036045
148	233897	21	7.4421709150552
148	235197	22	3.9356513608072
148	242251	23	2.0314708468076
148	243369	24	1.9568625681355
148	267255	25	1.8270152560843
148	282164	26	2.2430102983227
148	288261	27	1.6559434627285
148	288829	28	1.9877799011832
148	294656	29	1.9139163325007
148	309448	30	2.2226789989231
148	325618	31	1.5878078731213
148	326287	32	0.973
148	331148	33	0.973
148	331794	34	4.687025058291
148	348578	35	4.5086159348266
148	359780	36	1.7142098697683
148	365063	37	6.3946500471944
148	365910	38	7.658079835934
148	371213	39	1.7352331342813
148	383104	40	2.0057154308238
148	396714	41	1.8793471901228
148	397335	42	1.8357730062873
148	401844	43	1.977766380625
148	402651	44	2.0255926985266
148	415848	45	1.8211607575687
148	424278	46	1.8745408227457
148	428338	47	2.01235487097
148	428818	48	1.9217513319037
148	432280	49	1.9641392135133
148	441134	50	1.8946911990125
147	23353	3	2.1307360917423
147	23684	4	1.8614315848611
147	48253	5	2.0160833343887
147	65268	6	1.9896380942618
147	72189	7	0.99080667907178
147	72520	8	0.029853895986452
147	79436	9	-0.090206470591946
147	98417	10	0.028640725901349
147	121571	11	0.0048175384546632
147	123559	12	-0.040804321609903
147	131211	13	0.085429739856627
147	132136	14	-0.090658946619369
147	158238	15	-1.343175833304
147	175135	16	-4.5
147	182534	17	0.42743883920135
147	183876	18	1.7210617083358
147	191852	19	0.31237405381255
147	211456	20	0.84934004714945
147	233897	21	1.8771633074782
147	235197	22	0.64127110373791
147	242251	23	0.029963336994406
147	243369	24	0.0059226275025868
147	267255	25	-0.034623969974927
147	282164	26	0.095102539057843
147	288261	27	-0.089579992007929
147	288829	28	0.01621192641789
147	294656	29	-0.0072062185034145
147	309448	30	0.088345565716736
147	325618	31	-0.11110810102662
147	326287	32	-1.7868606070486
147	331148	33	-4.4729337069336
147	331794	34	1.5724921294535
147	348578	35	1.2495116657242
147	359780	36	0.028125408999623
147	365063	37	1.7036193529982
147	365910	38	1.8166789536234
147	371213	39	-0.064988304148429
147	383104	40	0.020783982293215
147	396714	41	-0.018986363564618
147	397335	42	-0.03201770982705
147	401844	43	0.013054773379118
147	402651	44	0.027466061140876
147	415848	45	-0.036800525304862
147	424278	46	-0.019154643020592
147	428338	47	0.02425895960303
147	428818	48	-0.0046045083296473
147	432280	49	0.0086984619707788
147	441134	50	-0.013139101010747
90	16435	2	4.0445249643002
90	23353	3	6.1752610560425
90	23684	4	8.0366926409037
90	48253	5	10.052775975292
90	65268	6	12.042414069554
90	72189	7	13.033220748626
90	72520	8	13.063074644612
90	79436	9	12.97286817402
90	98417	10	13.001508899922
90	121571	11	13.006326438376
90	123559	12	12.965522116766
90	131211	13	13.050951856623
90	132136	14	12.960292910004
90	158238	15	11.6171170767
90	175135	16	7.1171170766998
90	182534	17	7.5445559159011
90	183876	18	9.2656176242369
90	191852	19	9.5779916780495
90	211456	20	10.427331725199
90	233897	21	12.304495032677
90	235197	22	12.945766136415
90	242251	23	12.975729473409
90	243369	24	12.981652100912
90	267255	25	12.947028130937
90	282164	26	13.042130669995
90	288261	27	12.952550677987
90	288829	28	12.968762604405
90	294656	29	12.961556385901
90	309448	30	13.049901951618
90	325618	31	12.938793850592
90	326287	32	11.151933243543
90	331148	33	6.6789995366094
90	331794	34	8.2514916660629
90	348578	35	9.5010033317871
90	359780	36	9.5291287407867
90	365063	37	11.232748093785
90	365910	38	13.049427047408
90	371213	39	12.98443874326
90	383104	40	13.005222725553
90	396714	41	12.986236361989
90	397335	42	12.954218652161
90	401844	43	12.967273425541
90	402651	44	12.994739486681
90	415848	45	12.957938961377
90	424278	46	12.938784318356
90	428338	47	12.963043277959
90	428818	48	12.958438769629
90	432280	49	12.9671372316
90	441134	50	12.953998130589
49	3	1	746.73783391533
49	16435	2	749.8699442766
49	23353	3	755.10644221808
49	23684	4	762.30440168241
49	48253	5	771.47826965435
49	65268	6	782.61617498851
49	72189	7	795.46462907064
49	72520	8	808.46250304391
49	79436	9	821.46280153904
49	98417	10	834.45194603943
49	121571	11	847.45160986213
49	123559	12	860.44495243817
49	131211	13	873.44959318766
49	132136	14	886.46810332265
49	158238	15	899.18065216283
49	175135	16	908.32276923953
49	182534	17	914.94156189424
49	183876	18	922.47847182906
49	191852	19	926.07046016865
49	211456	20	926.6
49	233897	21	926.6
49	235197	22	926.6
49	242251	23	926.6
49	243369	24	926.6
49	267255	25	926.6
49	282164	26	926.6
49	288261	27	926.6
49	288829	28	926.6
49	294656	29	926.6
49	309448	30	926.6
49	325618	31	926.6
49	326287	32	926.6
49	331148	33	926.6
49	331794	34	926.04538302592
49	348578	35	922.55961550791
49	359780	36	914.01872599941
49	365063	37	903.53775510599
49	365910	38	891.30228828296
49	371213	39	878.29123938382
49	383104	40	865.29490854454
49	396714	41	852.31302893054
49	397335	42	839.29977511427
49	401844	43	826.29262487609
49	402651	44	813.27932696087
49	415848	45	800.30562402035
49	424278	46	787.3021265539
49	428338	47	774.29760001197
49	428818	48	761.30626833648
49	432280	49	748.29831746404
49	441134	50	735.30571169166
48	3	1	1520.2
48	16435	2	1520.2
48	23353	3	1520.2
48	23684	4	1523.4
48	48253	5	1523.4
48	65268	6	1523.4
48	72189	7	1523.4
48	72520	8	1523.4
48	79436	9	1523.4
48	98417	10	1523.4
48	121571	11	1523.4
48	123559	12	1523.4
48	131211	13	1523.4
48	132136	14	1523.4
48	158238	15	1523.4
48	175135	16	1523.4
48	182534	17	1523.469613567
48	183876	18	1526.7339904021
48	191852	19	1535.2804806244
48	211456	20	1545.019152011
48	233897	21	1556.4991102161
48	235197	22	1569.4225018535
48	242251	23	1582.4109914236
48	243369	24	1595.4353507926
48	267255	25	1608.4534168206
48	282164	26	1621.467019568
48	288261	27	1634.4553063358
48	288829	28	1647.462574335
48	294656	29	1660.4517724059
48	309448	30	1673.4495316865
48	325618	31	1686.4561706902
48	326287	32	1698.9643044144
48	331148	33	1707.6585981633
48	331794	34	1714.9544605157
48	348578	35	1723.1961178425
48	359780	36	1726.6
48	365063	37	1726.6
48	365910	38	1726.6
48	371213	39	1726.6
48	383104	40	1726.6
48	396714	41	1726.6
48	397335	42	1726.6
48	401844	43	1726.6
48	402651	44	1726.6
48	415848	45	1726.6
48	424278	46	1726.6
48	428338	47	1726.6
48	428818	48	1726.6
48	432280	49	1726.6
48	441134	50	1726.6
162	23353	3	4.0298873491801
162	23684	4	5.5511071573109
162	48253	5	5.9695942075937
162	65268	6	7.9732586414409
162	72189	7	8.3123249616264
162	72520	8	9.1786396583219
162	79436	9	5.7013216791893
162	98417	10	2.3067649779073
162	121571	11	0.973
162	123559	12	0.973
162	131211	13	0.973
162	132136	14	6.6876399950236
162	158238	15	7.0277239117906
162	175135	16	7.506437641828
162	182534	17	8.5602740429069
162	183876	18	0.973
162	191852	19	0.973
162	211456	20	0.973
162	233897	21	5.6230511349346
162	235197	22	6.0716008114311
162	242251	23	6.6114179043258
162	243369	24	8.1603208756897
162	267255	25	8.8739532487007
162	282164	26	6.6865770529399
162	288261	27	2.1750914194273
162	288829	28	0.973
162	294656	29	0.973
162	309448	30	8.2342366545814
162	325618	31	8.3453944540768
162	326287	32	2.399854086673
162	331148	33	2.5128151032724
162	331794	34	2.0865932806686
162	348578	35	0.973
162	359780	36	0.973
162	365063	37	0.973
162	365910	38	5.8400488737381
162	371213	39	6.6476083868894
162	383104	40	7.8166022936979
162	396714	41	8.7553672277623
162	397335	42	8.8867038043413
162	401844	43	2.6885219782965
162	402651	44	1.9730258133997
162	415848	45	2.605837201315
162	424278	46	2.2498648624487
162	428338	47	2.565895313064
162	428818	48	2.3303140466419
162	432280	49	2.25824723049
162	441134	50	2.2494454928918
161	23353	3	1.867686963412
161	23684	4	2.1013773460686
161	48253	5	1.8305566203897
161	65268	6	2.1398810339859
161	72189	7	1.8943320985092
161	72520	8	1.8473267889162
161	79436	9	0.85115528740324
161	98417	10	-0.003071124861016
161	121571	11	-2.4461210319988
161	123559	12	-4.4935316094469
161	131211	13	-2.37
161	132136	14	2.2275423903577
161	158238	15	1.9195711999247
161	175135	16	1.7627047764463
161	182534	17	1.7929455157882
161	183876	18	-1.1932363331797
161	191852	19	-4.473116554665
161	211456	20	-3.0746991994418
161	233897	21	2.0591212675977
161	235197	22	1.8175357237249
161	242251	23	1.6967554705995
161	243369	24	1.8815112112579
161	267255	25	1.8018927053991
161	282164	26	1.0986800287649
161	288261	27	-0.035410570641979
161	288829	28	-1.9233724158018
161	294656	29	-1.3130498882919
161	309448	30	1.6963723372784
161	325618	31	1.5225721468747
161	326287	32	0.021143938235472
161	331148	33	0.047985990054443
161	331794	34	-0.057562087396967
161	348578	35	-4.5
161	359780	36	-4.4923477835346
161	365063	37	-0.23663949937881
161	365910	38	1.9158505586092
161	371213	39	1.8457294820994
161	383104	40	1.8968665487133
161	396714	41	1.8676030955813
161	397335	42	1.6629624249349
161	401844	43	0.092341954538131
161	402651	44	-0.085355037928093
161	415848	45	0.072024576670955
161	424278	46	-0.01704038961325
161	428338	47	0.060461757821031
161	428818	48	0.0012952967197641
161	432280	49	-0.016299708897712
161	441134	50	-0.017971551199444
97	16435	2	3.9548027393748
97	23353	3	5.8224897027867
97	23684	4	7.9238670488554
97	48253	5	9.754423669245
97	65268	6	11.894304703231
97	72189	7	13.78863680174
97	72520	8	15.635963590656
97	79436	9	16.48711887806
97	98417	10	16.484047753199
97	121571	11	14.0379267212
97	123559	12	9.5443951117529
97	131211	13	7.1743951117529
97	132136	14	9.4019375021106
97	158238	15	11.321508702035
97	175135	16	13.084213478482
97	182534	17	14.87715899427
97	183876	18	13.68392266109
97	191852	19	9.2108061064251
97	211456	20	6.1361069069832
97	233897	21	8.1952281745809
97	235197	22	10.012763898306
97	242251	23	11.709519368905
97	243369	24	13.591030580163
97	267255	25	15.392923285562
97	282164	26	16.491603314327
97	288261	27	16.456192743685
97	288829	28	14.532820327883
97	294656	29	13.219770439591
97	309448	30	14.91614277687
97	325618	31	16.438714923745
97	326287	32	16.45985886198
97	331148	33	16.507844852035
97	331794	34	16.450282764638
97	348578	35	11.950282764638
97	359780	36	7.457934981103
97	365063	37	7.2212954817242
97	365910	38	9.1371460403334
97	371213	39	10.982875522433
97	383104	40	12.879742071146
97	396714	41	14.747345166727
97	397335	42	16.410307591662
97	401844	43	16.5026495462
97	402651	44	16.417294508272
97	415848	45	16.489319084943
97	424278	46	16.47227869533
97	428338	47	16.532740453151
97	428818	48	16.534035749871
97	432280	49	16.517736040973
97	441134	50	16.499764489774
63	3	1	616.67386765656
63	16435	2	614.4451334233
63	23353	3	610.88551012967
63	23684	4	603.69680957582
63	48253	5	597.35578438788
63	65268	6	589.67045159502
63	72189	7	580.57369225851
63	72520	8	570.07528816013
63	79436	9	558.55159289548
63	98417	10	546.89036670441
63	121571	11	536.07579461623
63	123559	12	529.4973613288
63	131211	13	527.00492576313
63	132136	14	526.6
63	158238	15	526.6
63	175135	16	526.6
63	182534	17	526.6
63	183876	18	526.6
63	191852	19	526.6
63	211456	20	526.6
63	233897	21	525.98257649415
63	235197	22	520.2640422193
63	242251	23	509.44309982348
63	243369	24	496.67312512622
63	267255	25	482.08800254031
63	282164	26	465.84668843718
63	288261	27	449.38931536087
63	288829	28	433.45766875452
63	294656	29	421.78052171092
63	309448	30	411.7792068303
63	325618	31	400.50421256754
63	326287	32	388.86751701149
63	331148	33	377.21238477874
63	331794	34	365.55555092955
63	348578	35	355.67363542677
63	359780	36	348.97204442575
63	365063	37	344.39195200723
63	365910	38	338.29286369779
63	371213	39	331.76504101769
63	383104	40	329.8
63	396714	41	329.8
63	397335	42	329.8
63	401844	43	329.8
63	402651	44	329.8
63	415848	45	329.8
63	424278	46	329.8
63	428338	47	329.8
63	428818	48	329.8
63	432280	49	329.8
63	441134	50	329.8
62	3	1	440.11613234344
62	16435	2	442.3448665767
62	23353	3	445.90448987033
62	23684	4	448.57319042418
62	48253	5	454.91421561212
62	65268	6	462.59954840498
62	72189	7	471.69630774149
62	72520	8	482.19471183987
62	79436	9	493.71840710452
62	98417	10	505.37963329559
62	121571	11	516.71565878142
62	123559	12	526.18334551052
62	131211	13	533.18122869516
62	132136	14	541.61493886228
62	158238	15	552.06495026368
62	175135	16	564.29484369833
62	182534	17	578.37849412022
62	183876	18	593.39739702181
62	191852	19	604.61914601125
62	211456	20	611.56954235785
62	233897	21	618.92196454092
62	235197	22	625.60157466842
62	242251	23	626.6
62	243369	24	626.6
62	267255	25	629.8
62	282164	26	629.8
62	288261	27	629.8
62	288829	28	629.8
62	294656	29	635.06724948638
62	309448	30	645.0107931697
62	325618	31	656.28578743246
62	326287	32	667.92248298851
62	331148	33	679.57761522126
62	331794	34	691.23444907045
62	348578	35	701.11636457323
62	359780	36	707.81795557425
62	365063	37	712.39804799277
62	365910	38	717.95446233172
62	371213	39	725.55676979412
62	383104	40	737.24686409973
62	396714	41	751.21324744233
62	397335	42	766.9913858947
62	401844	43	783.4489131436
62	402651	44	799.92156545627
62	415848	45	816.38174158558
62	424278	46	832.85963993023
62	428338	47	849.32598240486
62	428818	48	865.79844479107
62	432280	49	882.26219283923
62	441134	50	898.75831150554
120	23353	3	4.2392021886124
120	23684	4	5.2702328305672
120	48253	5	6.1832848801552
120	65268	6	7.619254751956
120	72189	7	8.5903948100275
120	72520	8	8.5678724296981
120	79436	9	2.0474963720792
120	98417	10	2.197254738589
120	121571	11	2.6305974306387
120	123559	12	2.2521343598002
120	131211	13	2.2195582448283
120	132136	14	2.1218332462907
120	158238	15	1.9434640002089
120	175135	16	2.3997032556971
120	182534	17	2.0559910045399
120	183876	18	2.2071689867044
120	191852	19	2.1380596552457
120	211456	20	2.212508484817
120	233897	21	2.4242813229166
120	235197	22	1.9132947524818
120	242251	23	2.312406894179
120	243369	24	0.973
120	267255	25	0.973
120	282164	26	0.973
120	288261	27	6.5270399190096
120	288829	28	0.973
120	294656	29	0.973
120	309448	30	6.8106205749963
120	325618	31	7.3361317039531
120	326287	32	8.4334223872594
120	331148	33	3.8487875309381
120	331794	34	0.973
120	348578	35	0.973
120	359780	36	6.0711955225101
120	365063	37	6.2052406495176
120	365910	38	7.2982149228371
120	371213	39	8.5989380370747
120	383104	40	8.5772400296432
120	396714	41	0.973
120	397335	42	0.973
120	401844	43	0.973
120	402651	44	0.973
120	415848	45	1.9867964453956
120	424278	46	4.4266333869334
120	428338	47	5.9207453761862
120	428818	48	6.8288898560349
120	432280	49	8.6750268468687
120	441134	50	9.0749667266235
120	452155	51	5.2473557447966
119	23353	3	1.9359117542254
119	23684	4	1.9391393919545
119	48253	5	1.8946813262976
119	65268	6	2.0172318365937
119	72189	7	1.9662904151133
119	72520	8	1.6967746040488
119	79436	9	-0.04161146552069
119	98417	10	-0.0015045736148025
119	121571	11	0.11024057039991
119	123559	12	0.0094099981896587
119	131211	13	0.00073888797312982
119	132136	14	-0.024489263726863
119	158238	15	-0.070078781875782
119	175135	16	0.050071544842794
119	182534	17	-0.040299841372761
119	183876	18	5.0466626415613e-005
119	191852	19	-0.017867312501183
119	211456	20	0.0019663774175562
119	233897	21	0.056599419421982
119	235197	22	-0.077443679769058
119	242251	23	0.028411516752094
119	243369	24	-2.0914430887531
119	267255	25	-4.5
119	282164	26	-1.6341570216855
119	288261	27	2.142946778622
119	288829	28	-0.38851569347664
119	294656	29	-1.66
119	309448	30	2.221250591916
119	325618	31	1.9749070963217
119	326287	32	1.9684402320697
119	331148	33	0.52958009561365
119	331794	34	-4.4821066169459
119	348578	35	-3.7810272038262
119	359780	36	2.3032633855124
119	365063	37	1.8728051703656
119	365910	38	1.9006539295102
119	371213	39	1.964968011477
119	383104	40	1.6962025999971
119	396714	41	-1.631616844424
119	397335	42	-4.4904278210416
119	401844	43	-3.0949816137249
119	402651	44	-2.2542820772412
119	415848	45	0.56989547522506
119	424278	46	1.8824530776613
119	428338	47	2.0820779976598
119	428818	48	1.9893882096885
119	432280	49	2.186540784149
119	441134	50	1.9541158854286
119	452155	51	0.8089132376261
76	16435	2	4.1031098209968
76	23353	3	6.0390215752222
76	23684	4	7.9781609671767
76	48253	5	9.8728422934743
76	65268	6	11.890074130068
76	72189	7	13.856364545181
76	72520	8	15.55313914923
76	79436	9	15.511527683709
76	98417	10	15.510023110095
76	121571	11	15.620263680495
76	123559	12	15.629673678684
76	131211	13	15.630412566657
76	132136	14	15.60592330293
76	158238	15	15.535844521055
76	175135	16	15.585916065897
76	182534	17	15.545616224525
76	183876	18	15.545666691151
76	191852	19	15.52779937865
76	211456	20	15.529765756068
76	233897	21	15.58636517549
76	235197	22	15.50892149572
76	242251	23	15.537333012473
76	243369	24	13.445889923719
76	267255	25	8.9458899237194
76	282164	26	7.3117329020339
76	288261	27	9.4546796806559
76	288829	28	9.0661639871793
76	294656	29	7.4061639871793
76	309448	30	9.6274145790953
76	325618	31	11.602321675417
76	326287	32	13.570761907487
76	331148	33	14.1003420031
76	331794	34	9.6182353861544
76	348578	35	5.8372081823282
76	359780	36	8.1404715678406
76	365063	37	10.013276738206
76	365910	38	11.913930667716
76	371213	39	13.878898679193
76	383104	40	15.57510127919
76	396714	41	13.943484434766
76	397335	42	9.4530566137249
76	401844	43	6.358075
76	402651	44	4.1037929227588
76	415848	45	4.6736883979838
76	424278	46	6.5561414756452
76	428338	47	8.638219473305
76	428818	48	10.627607682993
76	432280	49	12.814148467142
76	441134	50	14.768264352571
76	452155	51	15.577177590197
21	3	1	1148.5212663199
21	16435	2	1150.7917852703
21	23353	3	1154.453530677
21	23684	4	1159.4813242629
21	48253	5	1165.8463484298
21	65268	6	1173.605583986
21	72189	7	1180.5287768879
21	72520	8	1191.0440444392
21	79436	9	1202.0457179982
21	98417	10	1212.9607382056
21	121571	11	1224.0361644213
21	123559	12	1237.8922468075
21	131211	13	1251.8218153795
21	132136	14	1265.7549396032
21	158238	15	1279.6802308391
21	175135	16	1293.6198790676
21	182534	17	1307.540851451
21	183876	18	1321.4388145314
21	191852	19	1335.3723838671
21	211456	20	1349.3109493636
21	233897	21	1363.2380738322
21	235197	22	1377.1541539702
21	242251	23	1391.0717145599
21	243369	24	1404.4412029657
21	267255	25	1414.253701603
21	282164	26	1420.4248329185
21	288261	27	1424.6596637919
21	288829	28	1426.2121762362
21	294656	29	1426.5343341096
21	309448	30	1426.6
21	325618	31	1426.6
21	326287	32	1426.6
21	331148	33	1426.6
21	331794	34	1426.6
21	348578	35	1426.6
21	359780	36	1426.6
21	365063	37	1426.6
21	365910	38	1426.6
21	371213	39	1426.6
21	383104	40	1426.6
21	396714	41	1426.6
21	397335	42	1426.6
21	401844	43	1426.6
21	402651	44	1425.0823782445
21	415848	45	1423.4
21	424278	46	1423.4
21	428338	47	1423.4
21	428818	48	1423.4
21	432280	49	1423.4
21	441134	50	1423.4
21	452155	51	1423.4
20	3	1	941.7312663199
20	16435	2	944.00178527026
20	23353	3	947.66353067701
20	23684	4	952.69132426292
20	48253	5	959.05634842984
20	65268	6	966.81558398599
20	72189	7	978.25877688794
20	72520	8	988.77404443924
20	79436	9	999.7757179982
20	98417	10	1010.9658168903
20	121571	11	1022.2649170098
20	123559	12	1029.6561234038
20	131211	13	1036.6209076898
20	132136	14	1043.5874698016
20	158238	15	1050.5501154196
20	175135	16	1057.5199395338
20	182534	17	1064.4804257255
20	183876	18	1071.4294072657
20	191852	19	1078.3961919336
20	211456	20	1085.3654746818
20	233897	21	1092.3290369161
20	235197	22	1099.2870769851
20	242251	23	1106.2458572799
20	243369	24	1112.9306014829
20	267255	25	1117.8368508015
20	282164	26	1121.4418313945
20	288261	27	1128.6450003735
20	288829	28	1138.5033796064
20	294656	29	1145.7939523498
20	309448	30	1154.5016555465
20	325618	31	1165.1673407471
20	326287	32	1177.7766986359
20	331148	33	1192.1397790568
20	331794	34	1203.7812251046
20	348578	35	1210.9990496093
20	359780	36	1218.1932202259
20	365063	37	1227.3920409327
20	365910	38	1238.4610076786
20	371213	39	1251.4693541304
20	383104	40	1266.4102450983
20	396714	41	1281.6137993189
20	397335	42	1293.0918559326
20	401844	43	1300.4267994318
20	402651	44	1304.2788108778
20	415848	45	1300.9862727505
20	424278	46	1295.2948892303
20	428338	47	1287.5819544042
20	428818	48	1277.8354338651
20	432280	49	1266.027466788
20	441134	50	1252.1371917839
20	452155	51	1236.6697387073
160	23353	3	4.043318729762
160	23684	4	5.880119151111
160	48253	5	6.4836748546591
160	65268	6	7.0442564943485
160	72189	7	8.3733740246752
160	72520	8	0.973
160	79436	9	0.973
160	98417	10	4.540140126286
160	121571	11	5.4727744252535
160	123559	12	5.9242680040637
160	131211	13	7.7332589566964
160	132136	14	9.0722621327077
160	158238	15	7.1265702611351
160	175135	16	2.0884012648432
160	182534	17	0.973
160	183876	18	0.973
160	191852	19	3.6156531701977
160	211456	20	6.3217600681838
160	233897	21	7.0494544866751
160	235197	22	8.1397258093104
160	242251	23	9.6671274638271
160	243369	24	3.4669890184998
160	267255	25	2.0848174091001
160	282164	26	0.973
160	288261	27	0.973
160	288829	28	0.973
160	294656	29	6.5133609428711
160	309448	30	7.2454417023248
160	325618	31	7.5262396160877
160	326287	32	8.7834544306715
160	331148	33	7.8236894084642
160	331794	34	2.0721970424511
160	348578	35	2.1432265619313
160	359780	36	2.1895552107787
160	365063	37	2.5721497338453
160	365910	38	1.9060104822114
160	371213	39	2.6550713505785
160	383104	40	2.2676856773197
160	396714	41	1.9007309159198
160	397335	42	0.973
160	401844	43	0.973
160	402651	44	0.973
160	415848	45	0.973
160	424278	46	2.2142006838497
160	428338	47	5.0502754093018
160	428818	48	6.4646923719138
160	432280	49	6.7888377122457
160	441134	50	8.2688603487895
160	452155	51	9.6011715244594
160	452607	52	5.546283282628
160	455645	53	1.9593220784776
159	23353	3	1.8502036603959
159	23684	4	2.2144740703306
159	48253	5	1.9719553637342
159	65268	6	1.8148992397846
159	72189	7	1.90934268357
159	72520	8	-3.4888343664936
159	79436	9	-4.4791979598277
159	98417	10	1.6726102558617
159	121571	11	1.7263924735063
159	123559	12	1.5980517827971
159	131211	13	1.8959553208342
159	132136	14	1.9647934659128
159	158238	15	1.2659503668092
159	175135	16	-0.042359555293807
159	182534	17	-4.3595439872926
159	183876	18	-4.4992503890659
159	191852	19	1.0552383851353
159	211456	20	1.9163215893344
159	233897	21	1.8241347640241
159	235197	22	1.8547642179485
159	242251	23	1.9695633310522
159	243369	24	0.31314583978111
159	267255	25	-0.044144293360878
159	282164	26	-0.6668415374578
159	288261	27	-4.462620174687
159	288829	28	-4.4996300987261
159	294656	29	2.3546687605185
159	309448	30	2.1142046286119
159	325618	31	1.8453556886641
159	326287	32	1.9078023935528
159	331148	33	1.4441175099374
159	331794	34	-0.04714532047743
159	348578	35	-0.027847213267815
159	359780	36	-0.015309993806294
159	365063	37	0.081596079645678
159	365910	38	-0.089120975886471
159	371213	39	0.10262276391964
159	383104	40	0.0020579977869062
159	396714	41	-0.090847685779446
159	397335	42	-1.2669032718614
159	401844	43	-4.4637991149397
159	402651	44	-4.1700550975435
159	415848	45	-1.8248674385739
159	424278	46	0.7248264889745
159	428338	47	2.1113840923272
159	428818	48	2.1828340363223
159	432280	49	1.8797805262706
159	441134	50	2.0046970493463
159	452155	51	2.0416478463518
159	452607	52	0.85398651404237
159	455645	53	-0.075510607969482
96	16435	2	4.0476634023182
96	23353	3	5.8978670627142
96	23684	4	8.1123411330448
96	48253	5	10.084296496779
96	65268	6	11.899195736564
96	72189	7	13.808538420134
96	72520	8	10.31970405364
96	79436	9	5.8405060938122
96	98417	10	7.5131163496738
[...]
163	542645	136	-2.8298105723431
163	542745	137	-0.93108009830879
163	542766	138	2.3085977036296
163	542866	139	2.095841488461
163	542962	140	0.74926397228795
163	542989	141	-0.014493557109963
163	543000	142	0.043700826629065
163	543027	143	-0.065896837511101
163	543038	144	0.034274488752708
163	543150	145	-0.02703610624885
163	543161	146	0.049211130642798
163	543188	147	-0.045081715940032
163	543199	148	-0.011912122187205
163	543226	149	0.018177591236308
163	543304	150	0.059494758246002
163	543331	151	-0.0055195968900819
163	543342	152	-0.051370891751722
163	543369	153	-0.94506028189086
163	543380	154	-4.4311750377894
163	543492	155	1.7035000349069
163	543531	156	2.0066757320915
163	543558	157	1.7457135478424
163	543569	158	-0.017394119219389
163	543624	159	-0.068669064065908
163	543720	160	0.093391164196655
163	543747	161	-0.066373569695278
163	543758	162	0.021981465602293
163	543785	163	-0.28246763314208
163	543796	164	-4.4589773109518
163	543908	165	0.38569495996926
163	543947	166	2.0087982789869
163	543974	167	1.9988012556825
163	543985	168	0.38345031761048
163	544012	169	-0.0037394097656929
163	544121	170	-0.056542484830134
163	544148	171	0.066262914577964
163	544159	172	-0.023194867449346
163	544185	173	0.031251506269909
163	544196	174	-0.060975269237533
163	544292	175	0.027666138506028
163	544303	176	-3.9718388647595
163	544329	177	-0.91856460286893
163	544340	178	2.127436633748
163	544395	179	2.2618761302927
163	544476	180	0.4264104850681
163	544503	181	0.019912901322822
163	544514	182	0.069164762713482
163	544553	183	-0.0031897423951897
163	544564	184	-0.085247130901552
163	544630	185	0.00044935100944699
163	544641	186	0.066224381406791
163	544667	187	0.0018520643841473
163	544678	188	-0.03075194706209
163	544704	189	0.0033737892610954
163	544755	190	-0.0083836418879226
163	544781	191	0.0098853401350798
163	544792	192	-0.039153904046398
163	544818	193	0.068283633771351
163	544829	194	-2.8465510771044
163	544895	195	-3.6114643301592
163	544906	196	-2.1275453580059
163	544945	197	-0.030390404926147
163	544969	198	1.9139930827939
163	544995	199	2.0232236055541
163	545046	200	1.8000526893977
163	545072	201	1.9261927265814
163	545083	202	0.94991717174729
163	545109	203	-0.036072670284192
163	545120	204	-0.017255848138594
163	545186	205	-0.01201863591792
163	545197	206	0.074805318941362
163	545223	207	0.026813189147507
163	545234	208	0.0040315073099908
163	545260	209	0.0075504807988196
163	545311	210	-0.10145923126955
163	545337	211	0.057969509570393
98	16435	2	3.9793318004404
98	23353	3	5.9281332699197
98	23684	4	7.8414562295737
98	48253	5	9.5585071480354
98	65268	6	11.469328168175
98	72189	7	11.382416595417
98	72520	8	6.9209614151386
98	79436	9	7.3569186744136
98	98417	10	9.4123245368754
98	121571	11	11.27870539033
98	123559	12	11.629991705977
98	131211	13	11.672308347535
98	132136	14	11.65342046706
98	158238	15	11.609332983587
98	175135	16	11.582288964289
98	182534	17	11.663692016648
98	183876	18	11.632864516129
98	191852	19	11.648577375799
98	211456	20	11.703879619677
98	233897	21	11.609989992367
98	235197	22	11.63483971518
98	242251	23	11.685093175841
98	243369	24	11.692757905717
98	267255	25	11.647053108199
98	282164	26	11.651227212157
98	288261	27	11.615192604014
98	288829	28	11.639804490789
98	294656	29	11.632027052597
98	309448	30	11.601517773525
98	325618	31	11.623862670802
98	326287	32	11.688204370519
98	331148	33	11.692906095465
98	331794	34	11.697963165329
98	348578	35	11.593751721816
98	359780	36	9.2429356347098
98	365063	37	6.1674302637612
98	365910	38	8.2180253114982
98	371213	39	10.137454056308
98	383104	40	11.697335968698
98	396714	41	11.612716824331
98	397335	42	11.634923658439
98	401844	43	11.67670574301
98	402651	44	11.659269049147
98	415848	45	11.632549739723
98	424278	46	11.578143056198
98	428338	47	11.694592067649
98	428818	48	11.639037158417
98	432280	49	11.653418637421
98	441134	50	9.9758623909199
98	452155	51	5.4854466767754
98	452607	52	7.7687064891337
98	455645	53	9.3512544827595
98	456218	54	11.204752417727
98	464769	55	11.636504246795
98	469007	56	11.639832939636
98	471319	57	11.591012408091
98	471788	58	11.616742564531
98	473958	59	11.688654133294
98	479074	60	11.61493651635
98	484782	61	11.604775378798
98	484953	62	11.608958959873
98	486880	63	11.619338080816
98	487228	64	11.622913909625
98	492835	65	11.697406765784
98	495933	66	11.602339052675
98	497438	67	11.647895023909
98	497706	68	7.9031017516924
98	499174	69	6.9531017516924
98	502179	70	9.0322298940153
98	505459	71	11.000503201696
98	505841	72	11.593801714264
98	507180	73	11.674034458425
98	507466	74	11.603013956128
98	511625	75	11.66152439104
98	513667	76	11.698171564786
98	514687	77	11.626253694683
98	514950	78	10.220192943971
98	515970	79	7.4908876167795
98	518524	80	6.5005644129483
98	520718	81	8.9745093919324
98	520944	82	11.044005660122
98	521788	83	11.649565382051
98	522012	84	11.66087757343
98	523928	85	11.652296485433
98	525189	86	11.621228651281
98	525943	87	11.662439292877
98	526034	88	11.64497872033
98	526744	89	11.67903571558
98	528133	90	11.602593436311
98	530145	91	11.655117860746
98	530236	92	11.609219420716
98	530841	93	11.576130885713
98	531010	94	11.695127542694
98	532650	95	11.624511114105
98	533529	96	11.584543575785
98	534136	97	9.3449706623975
98	534217	98	4.8680211879178
98	534823	99	5.7921301175519
98	536090	100	5.6165509182498
98	537252	101	1.1417243444945
98	537352	102	0
98	537697	103	0
98	537758	104	0
98	538772	105	0
98	538928	106	0
98	539089	107	1.8713795743001
98	539130	108	3.8323135911748
98	539291	109	5.7075026312195
98	539745	110	7.6329280171967
98	539993	111	9.4703202279289
98	540034	112	11.342022970014
98	540197	113	11.694281611846
98	540238	114	11.631838509119
98	540721	115	11.62880177683
98	540847	116	10.238992348398
98	540954	117	6.4634714832332
98	541027	118	7.7321969917023
98	541183	119	6.9325582918248
98	541313	120	8.9509306602788
98	541467	121	10.887460332092
98	541488	122	11.634847411632
98	541549	123	11.702827730333
98	541570	124	11.665321362731
98	541747	125	11.66345621262
98	541863	126	11.673237874923
98	541924	127	11.638148865498
98	541945	128	11.640255122739
98	542007	129	11.583763807994
98	542143	130	11.683692559281
98	542276	131	11.64871956616
98	542297	132	11.6693160649
98	542359	133	11.686876644984
98	542380	134	11.591378815775
98	542533	135	10.22260563319
98	542645	136	7.3927950608466
98	542745	137	6.4617149625378
98	542766	138	8.7703126661674
98	542866	139	10.866154154628
98	542962	140	11.615418126916
98	542989	141	11.600924569806
98	543000	142	11.644625396435
98	543027	143	11.578728558924
98	543038	144	11.613003047677
98	543150	145	11.585966941428
98	543161	146	11.635178072071
98	543188	147	11.590096356131
98	543199	148	11.578184233944
98	543226	149	11.59636182518
98	543304	150	11.655856583426
98	543331	151	11.650336986536
98	543342	152	11.598966094784
98	543369	153	10.653905812893
98	543380	154	6.222730775104
98	543492	155	7.9262308100109
98	543531	156	9.9329065421024
98	543558	157	11.678620089945
98	543569	158	11.661225970725
98	543624	159	11.59255690666
98	543720	160	11.685948070856
98	543747	161	11.619574501161
98	543758	162	11.641555966763
98	543785	163	11.359088333621
98	543796	164	6.9001110226693
98	543908	165	7.2858059826385
98	543947	166	9.2946042616255
98	543974	167	11.293405517308
98	543985	168	11.676855834918
98	544012	169	11.673116425153
98	544121	170	11.616573940323
98	544148	171	11.682836854901
98	544159	172	11.659641987451
98	544185	173	11.690893493721
98	544196	174	11.629918224484
98	544292	175	11.65758436299
98	544303	176	7.6857454982302
98	544329	177	6.7671808953612
98	544340	178	8.8946175291092
98	544395	179	11.156493659402
98	544476	180	11.58290414447
98	544503	181	11.602817045793
98	544514	182	11.671981808506
98	544553	183	11.668792066111
98	544564	184	11.58354493521
98	544630	185	11.583994286219
98	544641	186	11.650218667626
98	544667	187	11.65207073201
98	544678	188	11.621318784948
98	544704	189	11.624692574209
98	544755	190	11.616308932321
98	544781	191	11.626194272456
98	544792	192	11.58704036841
98	544818	193	11.655324002181
98	544829	194	8.8087729250766
98	544895	195	5.1973085949175
98	544906	196	3.0697632369115
98	544945	197	3.0393728319854
98	544969	198	4.9533659147793
98	544995	199	6.9765895203334
98	545046	200	8.7766422097311
98	545072	201	10.702834936312
98	545083	202	11.65275210806
98	545109	203	11.616679437776
98	545120	204	11.599423589637
98	545186	205	11.587404953719
98	545197	206	11.66221027266
98	545223	207	11.689023461808
98	545234	208	11.693054969118
98	545260	209	11.700605449917
98	545311	210	11.599146218647
98	545337	211	11.657115728218
65	3	1	829.8
65	16435	2	829.8
65	23353	3	829.8
65	23684	4	829.8
65	48253	5	829.8
65	65268	6	829.8
65	72189	7	829.8
65	72520	8	829.8
65	79436	9	829.8
65	98417	10	829.8
65	121571	11	829.8
65	123559	12	829.8
65	131211	13	829.8
65	132136	14	829.8
65	158238	15	829.8
65	175135	16	829.8
65	182534	17	829.8
65	183876	18	829.80485264752
65	191852	19	828.70425741226
65	211456	20	823.71186394827
65	233897	21	818.52011414626
65	235197	22	813.3091299729
65	242251	23	808.09777484212
65	243369	24	802.88652957004
65	267255	25	797.68281479426
65	282164	26	792.47663757963
65	288261	27	787.27038510752
65	288829	28	782.06519999057
65	294656	29	776.85965180809
65	309448	30	771.6500916541
65	325618	31	766.45346200908
65	326287	32	761.25022181924
65	331148	33	756.03244675653
65	331794	34	750.82223531338
65	348578	35	745.61539600676
65	359780	36	740.76050292892
65	365063	37	737.63690587952
65	365910	38	734.26792062622
65	371213	39	729.70125709344
65	383104	40	722.53183390416
65	396714	41	714.29151010702
65	397335	42	706.05783798346
65	401844	43	697.82742933721
65	402651	44	689.59023476761
65	415848	45	681.34713171804
65	424278	46	673.11439587362
65	428338	47	664.87745055528
65	428818	48	656.65182832186
65	432280	49	648.42494459492
65	441134	50	640.48460276391
65	452155	51	635.17810941023
65	452607	52	630.94467612653
65	455645	53	629.8
65	456218	54	629.8
65	464769	55	629.8
65	469007	56	629.8
65	471319	57	629.8
65	471788	58	629.8
65	473958	59	629.8
65	479074	60	629.8
65	484782	61	629.8
65	484953	62	629.8
65	486880	63	629.8
65	487228	64	629.8
65	492835	65	629.8
65	495933	66	629.8
65	497438	67	629.8
65	497706	68	629.8
65	499174	69	629.8
65	502179	70	629.8
65	505459	71	629.8
65	505841	72	629.8
65	507180	73	629.8
65	507466	74	629.8
65	511625	75	629.8
65	513667	76	629.8
65	514687	77	629.8
65	514950	78	629.8
65	515970	79	632.3795008878
65	518524	80	637.23924641463
65	520718	81	644.14611257436
65	520944	82	653.15298369076
65	521788	83	663.51995863564
65	522012	84	672.50144520233
65	523928	85	682.9111664909
65	525189	86	693.30081986332
65	525943	87	703.70730768367
65	526034	88	714.12914054921
65	526744	89	724.5567888024
65	528133	90	734.97431470015
65	530145	91	745.40266703433
65	530236	92	755.82024807557
65	530841	93	766.22138580359
65	531010	94	776.63226985646
65	532650	95	787.03003620627
65	533529	96	797.45596638457
65	534136	97	807.21933707753
65	534217	98	813.36919972352
65	534823	99	817.8090659703
65	536090	100	823.81737614428
65	537252	101	827.04798060527
65	537352	102	827.14473292849
65	537697	103	827.14473292849
65	537758	104	827.14473292849
65	538772	105	827.14473292849
65	538928	106	827.14473292849
65	539089	107	828.05120854402
65	539130	108	831.19096914155
65	539291	109	836.1047265333
65	539745	110	842.90255181353
65	539993	111	851.58774161681
65	540034	112	862.06057245915
65	540197	113	873.7162017197
65	540238	114	885.34144595577
65	540721	115	896.97643901129
65	540847	116	908.31969986699
65	540954	117	916.153180602
65	541027	118	923.07438765328
65	541183	119	926.17431826674
65	541313	120	926.6
65	541467	121	926.6
65	541488	122	926.6
65	541549	123	926.6
65	541570	124	929.8
65	541747	125	929.8
65	541863	126	929.8
65	541924	127	929.8
65	541945	128	929.8
65	542007	129	929.8
65	542143	130	929.8
65	542276	131	929.8
65	542297	132	929.8
65	542359	133	929.8
65	542380	134	929.8
65	542533	135	929.8
65	542645	136	932.45277861036
65	542745	137	937.28594122566
65	542766	138	944.12154623394
65	542866	139	953.0267283077
65	542962	140	961.89599128136
65	542989	141	972.31576092373
65	543000	142	982.74386639961
65	543027	143	993.14930398374
65	543038	144	1003.5529263218
65	543150	145	1013.9546389821
65	543161	146	1024.363790502
65	543188	147	1034.7624552869
65	543199	148	1045.1603265445
65	543226	149	1055.5703383641
65	543304	150	1065.9914636763
65	543331	151	1076.3916890246
65	543342	152	1086.7944670125
65	543369	153	1097.0515546556
65	543380	154	1104.4222404326
65	543492	155	1110.6331186095
65	543531	156	1118.9282966172
65	543558	157	1129.7616224412
65	543569	158	1141.5598211026
65	543624	159	1153.2055967919
65	543720	160	1164.8475849443
65	543747	161	1176.4838566301
65	543758	162	1188.1128945156
65	543785	163	1199.7192409804
65	543796	164	1208.6425152021
65	543908	165	1215.0407449912
65	543947	166	1223.0876114272
65	543974	167	1231.958140787
65	543985	168	1240.7463520305
65	544012	169	1249.021164975
65	544121	170	1257.248394649
65	544148	171	1265.4911720487
65	544159	172	1273.7261109025
65	544185	173	1281.9567369151
65	544196	174	1290.18236783
65	544292	175	1298.4062824382
65	544303	176	1305.2416788349
65	544329	177	1309.7015055902
65	544340	178	1314.8578621467
65	544395	179	1320.3535402428
65	544476	180	1324.5398694121
65	544503	181	1326.314113237
65	544514	182	1326.6
65	544553	183	1326.6
65	544564	184	1326.6
65	544630	185	1326.6
65	544641	186	1326.6
65	544667	187	1326.6
65	544678	188	1326.6
65	544704	189	1326.6
65	544755	190	1326.6
65	544781	191	1326.6
65	544792	192	1326.6
65	544818	193	1326.6
65	544829	194	1326.6
65	544895	195	1326.6
65	544906	196	1325.4789172407
65	544945	197	1323.4
65	544969	198	1323.4
65	544995	199	1323.4
65	545046	200	1323.4
65	545072	201	1323.4
65	545083	202	1323.4
65	545109	203	1323.4
65	545120	204	1323.4
65	545186	205	1323.4
65	545197	206	1323.4
65	545223	207	1323.4
65	545234	208	1323.4
65	545260	209	1323.4
65	545311	210	1323.4
65	545337	211	1323.4
64	3	1	453.48675309575
64	16435	2	456.63482811467
64	23353	3	461.77600940886
64	23684	4	468.75014351046
64	48253	5	477.46097787221
64	65268	6	488.04969052137
64	72189	7	499.66803391164
64	72520	8	508.59547471477
64	79436	9	515.02603185584
64	98417	10	523.5272722676
64	121571	11	534.03459026466
64	123559	12	545.67154867516
64	131211	13	557.31673539076
64	132136	14	568.95615047319
64	158238	15	580.59444347025
64	175135	16	592.21786840124
64	182534	17	603.86489952732
64	183876	18	615.54303116723
64	191852	19	627.52056385445
64	211456	20	638.31627210346
64	233897	21	648.69977170747
64	235197	22	659.1217400542
64	242251	23	669.54445031576
64	243369	24	679.96694085991
64	267255	25	690.37437041147
64	282164	26	700.78672484074
64	288261	27	711.19922978496
64	288829	28	721.60960001885
64	294656	29	732.02069638383
64	309448	30	742.4398166918
64	325618	31	752.83307598185
64	326287	32	763.23955636153
64	331148	33	773.67510648693
64	331794	34	784.09552937324
64	348578	35	794.50920798647
64	359780	36	804.21899414216
64	365063	37	810.46618824097
64	365910	38	817.15018111738
64	371213	39	825.43386191413
64	383104	40	834.13721445616
64	396714	41	842.49848989298
64	397335	42	850.73216201654
64	401844	43	858.96257066279
64	402651	44	867.19976523239
64	415848	45	875.44286828196
64	424278	46	883.67560412638
64	428338	47	891.91254944472
64	428818	48	900.13817167814
64	432280	49	908.36505540508
64	441134	50	916.30539723609
64	452155	51	921.61189058977
64	452607	52	926.87552969341
64	455645	53	935.55393256266
64	456218	54	945.86703904104
64	464769	55	957.48644158355
64	469007	56	969.13300326385
64	471319	57	980.77916909273
64	471788	58	992.42412020377
64	473958	59	1004.0825626827
64	479074	60	1015.7401380677
64	484782	61	1027.3537086833
64	484953	62	1038.9823486056
64	486880	63	1050.6206233682
64	487228	64	1062.2542552523
64	492835	65	1073.8818173566
64	495933	66	1085.5162648909
64	497438	67	1097.1512661854
64	497706	68	1107.0438058509
64	499174	69	1113.5369076026
64	502179	70	1121.6889581532
64	505459	71	1131.8081386401
64	505841	72	1143.3764770452
64	507180	73	1155.0258962381
64	507466	74	1166.6602781672
64	511625	75	1178.3107422173
64	513667	76	1189.9760903956
64	514687	77	1201.606264778
64	514950	78	1212.934559229
64	515970	79	1221.204745498
64	518524	80	1225.3906236973
64	520718	81	1229.2081427402
64	520944	82	1233.7118330896
64	521788	83	1238.8956138287
64	522012	84	1246.9616516378
64	523928	85	1252.1668067579
64	525189	86	1257.3619273523
64	525943	87	1262.5654656469
64	526034	88	1267.7766768981
64	526744	89	1272.9907960077
64	528133	90	1278.1998536532
64	530145	91	1283.4143248232
64	530236	92	1288.623410042
64	530841	93	1293.824273139
64	531010	94	1299.0300096742
64	532650	95	1304.2291869868
64	533529	96	1309.4424470103
64	534136	97	1314.3244085483
64	534217	98	1317.399513842
64	534823	99	1319.6338091685
64	536090	100	1322.4600099861
64	537252	101	1323.1676224752
64	537352	102	1323.1877306388
64	537697	103	1323.1877306388
64	537758	104	1323.1877306388
64	538772	105	1323.1877306388
64	538928	106	1323.1877306388
64	539089	107	1323.2476518482
64	539130	108	1323.363225858
64	539291	109	1323.4
64	539745	110	1323.4
64	539993	111	1323.4
64	540034	112	1323.4
64	540197	113	1323.4
64	540238	114	1323.4
64	540721	115	1323.4
64	540847	116	1323.4
64	540954	117	1323.6223302878
64	541027	118	1326.084632592
64	541183	119	1332.4202278672
64	541313	120	1340.512554656
64	541467	121	1350.5036426828
64	541488	122	1362.0404552845
64	541549	123	1373.6816284127
64	541570	124	1385.3250400984
64	541747	125	1396.9603231714
64	541863	126	1408.5978472288
64	541924	127	1420.2621257796
64	541945	128	1431.9031999624
64	542007	129	1443.5517232943
64	542143	130	1455.2026466843
64	542276	131	1466.8486943777
64	542297	132	1478.4901260581
64	542359	133	1490.1390323633
64	542380	134	1501.7853732968
64	542533	135	1513.1336307787
64	542645	136	1521.3221287692
64	542745	137	1525.4185152287
64	542766	138	1529.195773117
64	542866	139	1533.6483641539
64	542962	140	1541.6579956407
64	542989	141	1546.8678804619
64	543000	142	1552.0819331998
64	543027	143	1557.2846519919
64	543038	144	1562.4864631609
64	543150	145	1567.6873194911
64	543161	146	1572.891895251
64	543188	147	1578.0912276434
64	543199	148	1583.2901632722
64	543226	149	1588.495169182
64	543304	150	1593.7057318381
64	543331	151	1598.9058445123
64	543342	152	1604.1072335062
64	543369	153	1609.2357773278
64	543380	154	1612.9211202163
64	543492	155	1616.072044921
64	543531	156	1620.3223099446
64	543558	157	1623.1197897213
64	543569	158	1623.4
64	543624	159	1623.4
64	543720	160	1623.4
64	543747	161	1623.4
64	543758	162	1623.4
64	543785	163	1623.4
64	543796	164	1623.4
64	543908	165	1623.4760944344
64	543947	166	1625.6476484389
64	543974	167	1631.0112271035
64	543985	168	1638.579118857
64	544012	169	1646.751164975
64	544121	170	1654.978394649
64	544148	171	1663.2211720487
64	544159	172	1671.4561109025
64	544185	173	1679.6867369151
64	544196	174	1687.91236783
64	544292	175	1696.1362824382
64	544303	176	1702.9716788349
64	544329	177	1707.4315055902
64	544340	178	1713.5036449553
64	544395	179	1721.9791463659
64	544476	180	1732.714644819
64	544503	181	1744.1522289795
64	544514	182	1755.795606698
64	544553	183	1767.4262606648
64	544564	184	1779.087758043
64	544630	185	1790.7366404454
64	544641	186	1802.3758621448
64	544667	187	1814.0334123498
64	544678	188	1825.669936748
64	544704	189	1837.2943427506
64	544755	190	1848.9369600429
64	544781	191	1860.5798394409
64	544792	192	1872.2117116479
64	544818	193	1883.8598446972
64	544829	194	1894.419742936
64	544895	195	1901.091076562
64	544906	196	1904.0805413797
64	544945	197	1902.5624964178
64	544969	198	1898.4770238359
64	544995	199	1892.4014475389
64	545046	200	1884.457557225
64	545072	201	1874.6925933788
64	545083	202	1863.2128235333
64	545109	203	1851.5834494279
64	545120	204	1839.9546619937
64	545186	205	1828.3165866122
64	545197	206	1816.6803969472
64	545223	207	1805.0304684639
64	545234	208	1793.3836513276
64	545260	209	1781.7208034
64	545311	210	1770.0828337844
64	545337	211	1758.4439655474

